<!-- generated on 2024-10-17 14:56:51 by Eclipse SUMO netconvert Version 1.21.0
<netconvertConfiguration xmlns:xsi="http://www.w3.org/2001/XMLSchema-instance" xsi:noNamespaceSchemaLocation="http://sumo.dlr.de/xsd/netconvertConfiguration.xsd">

    <input>
        <node-files value="/home/mangaldeep/workspace/carla/tegel_maps/SU_tegel_map_10_10_24.nod.xml"/>
        <edge-files value="/home/mangaldeep/workspace/carla/tegel_maps/SU_tegel_map_10_10_24.edg.xml"/>
        <connection-files value="/home/mangaldeep/workspace/carla/tegel_maps/SU_tegel_map_10_10_24.con.xml"/>
        <tllogic-files value="/home/mangaldeep/workspace/carla/tegel_maps/SU_tegel_map_10_10_24.tll.xml"/>
        <type-files value="/home/mangaldeep/workspace/carla/tegel_maps/SU_tegel_map_10_10_24.typ.xml"/>
    </input>

    <output>
        <output-file value="/home/mangaldeep/workspace/carla/tegel_maps/SU_tegel_map_10_10_24.net.xml"/>
    </output>

    <processing>
        <geometry.remove.keep-edges.explicit value="true"/>
        <geometry.remove.min-length value="0.0"/>
        <geometry.avoid-overlap value="true"/>
        <offset.disable-normalization value="true"/>
    </processing>

    <tls_building>
        <tls.guess-signals value="true"/>
        <tls.green.time value="50"/>
        <tls.yellow.time value="10"/>
        <tls.red.time value="50"/>
        <tls.allred.time value="50"/>
        <tls.left-green.time value="50"/>
        <tls.crossing-min.time value="50"/>
        <tls.crossing-clearance.time value="50"/>
        <tls.group-signals value="true"/>
    </tls_building>

    <junctions>
        <no-turnarounds value="true"/>
        <junctions.internal-link-detail value="20"/>
    </junctions>

    <random_number>
        <seed value="1234"/>
    </random_number>

</netconvertConfiguration>
--><net xmlns:xsi="http://www.w3.org/2001/XMLSchema-instance" version="1.20" junctionCornerDetail="5" junctionLinkDetail="20" limitTurnSpeed="5.50" xsi:noNamespaceSchemaLocation="http://sumo.dlr.de/xsd/net_file.xsd">

    <location netOffset="0.00,0.00" convBoundary="-669.32,-192.32,29.36,250.01" origBoundary="-669.32,-192.32,29.49,265.75" projParameter="!"/>

    <type id="highway.residential" priority="3" speed="13.89" disallow="pedestrian tram rail_urban rail rail_electric ship"/>

    <edge id=":1_0" function="internal">
        <lane id=":1_0_0" index="0" disallow="pedestrian tram rail_urban rail rail_electric ship" speed="36.11" length="3.01" width="75.23" shape="-359.51,-79.48 -362.47,-80.01"/>
    </edge>
    <edge id=":10_0" function="internal">
        <lane id=":10_0_0" index="0" disallow="pedestrian tram rail_urban rail rail_electric ship" speed="22.88" length="77.37" width="6.61" shape="-228.07,-74.31 -227.49,-73.00 -226.56,-71.69 -225.27,-70.39 -223.62,-69.09 -221.63,-67.78 -219.27,-66.48 -216.56,-65.19 -213.49,-63.89 -210.07,-62.59 -206.30,-61.30 -202.17,-60.01 -197.68,-58.72 -192.83,-57.43 -187.64,-56.14 -182.08,-54.86 -176.17,-53.57 -169.91,-52.29 -163.29,-51.01 -156.31,-49.73"/>
    </edge>
    <edge id=":10_1" function="internal">
        <lane id=":10_1_0" index="0" disallow="pedestrian tram rail_urban rail rail_electric ship" speed="36.11" length="3.01" width="6.61" shape="-159.29,-50.15 -156.31,-49.73"/>
    </edge>
    <edge id=":11_0" function="internal">
        <lane id=":11_0_0" index="0" disallow="pedestrian tram rail_urban rail rail_electric ship" speed="36.11" length="2.86" width="6.86" shape="-39.35,-22.03 -42.18,-22.47"/>
    </edge>
    <edge id=":12_0" function="internal">
        <lane id=":12_0_0" index="0" disallow="pedestrian tram rail_urban rail rail_electric ship" speed="36.11" length="0.10" width="6.61" shape="-39.57,-28.84 -39.57,-28.84"/>
    </edge>
    <edge id=":13_0" function="internal">
        <lane id=":13_0_0" index="0" disallow="pedestrian tram rail_urban rail rail_electric ship" speed="11.01" length="17.11" width="8.84" shape="20.22,-2.33 20.25,-3.05 20.23,-3.76 20.13,-4.47 19.98,-5.17 19.76,-5.86 19.47,-6.54 19.12,-7.21 18.71,-7.88 18.23,-8.54 17.69,-9.19 17.09,-9.84 16.42,-10.48 15.68,-11.11 14.89,-11.73 14.03,-12.35 13.10,-12.95 12.11,-13.56 11.06,-14.15 9.94,-14.73"/>
    </edge>
    <edge id=":13_1" function="internal">
        <lane id=":13_1_0" index="0" disallow="pedestrian tram rail_urban rail rail_electric ship" speed="36.11" length="15.07" width="7.07" shape="20.22,-2.33 21.63,-17.33"/>
    </edge>
    <edge id=":14_0" function="internal">
        <lane id=":14_0_0" index="0" disallow="pedestrian tram rail_urban rail rail_electric ship" speed="36.11" length="21.12" width="6.58" shape="28.27,-17.42 26.29,3.61"/>
    </edge>
    <edge id=":14_1" function="internal">
        <lane id=":14_1_0" index="0" disallow="pedestrian tram rail_urban rail rail_electric ship" speed="14.06" length="22.22" width="6.58" shape="18.95,-16.49 19.82,-15.64 20.63,-14.76 21.39,-13.86 22.10,-12.94 22.75,-12.00 23.35,-11.03 23.90,-10.04 24.39,-9.03 24.83,-7.99 25.22,-6.94 25.55,-5.86 25.83,-4.75 26.05,-3.63 26.23,-2.48 26.35,-1.30 26.41,-0.11 26.42,1.11 26.38,2.35 26.29,3.61"/>
    </edge>
    <edge id=":15_0" function="internal">
        <lane id=":15_0_0" index="0" disallow="pedestrian tram rail_urban rail rail_electric ship" speed="36.11" length="3.00" width="14.81" shape="8.99,117.71 9.27,114.72"/>
    </edge>
    <edge id=":16_0" function="internal">
        <lane id=":16_0_0" index="0" disallow="pedestrian tram rail_urban rail rail_electric ship" speed="36.11" length="2.73" width="6.63" shape="14.21,131.62 13.93,134.34"/>
    </edge>
    <edge id=":16_1" function="internal">
        <lane id=":16_1_0" index="0" disallow="pedestrian tram rail_urban rail rail_electric ship" speed="36.11" length="8.86" width="71.37" shape="14.21,131.62 22.03,135.78"/>
    </edge>
    <edge id=":17_0" function="internal">
        <lane id=":17_0_0" index="0" disallow="pedestrian tram rail_urban rail rail_electric ship" speed="36.11" length="3.00" width="6.64" shape="-2.31,235.18 -2.03,232.19"/>
    </edge>
    <edge id=":18_0" function="internal">
        <lane id=":18_0_0" index="0" disallow="pedestrian tram rail_urban rail rail_electric ship" speed="36.11" length="2.98" width="8.76" shape="4.70,231.20 4.42,234.17"/>
    </edge>
    <edge id=":18_1" function="internal">
        <lane id=":18_1_0" index="0" disallow="pedestrian tram rail_urban rail rail_electric ship" speed="14.90" length="3.36" width="8.76" shape="6.07,231.33 5.94,231.54 5.82,231.73 5.70,231.90 5.58,232.05 5.47,232.18 5.36,232.30 5.25,232.41 5.15,232.52 5.05,232.62 4.96,232.73 4.87,232.83 4.79,232.95 4.72,233.07 4.65,233.20 4.59,233.35 4.54,233.52 4.49,233.71 4.45,233.93 4.42,234.17"/>
    </edge>
    <edge id=":19_0" function="internal">
        <lane id=":19_0_0" index="0" disallow="pedestrian tram rail_urban rail rail_electric ship" speed="14.59" length="8.91" width="8.80" shape="-6.72,255.31 -6.36,254.77 -6.02,254.27 -5.71,253.83 -5.43,253.42 -5.17,253.04 -4.94,252.68 -4.73,252.35 -4.55,252.02 -4.38,251.70 -4.23,251.37 -4.10,251.04 -3.98,250.69 -3.87,250.32 -3.78,249.92 -3.69,249.48 -3.62,248.99 -3.55,248.46 -3.48,247.87 -3.42,247.22"/>
    </edge>
    <edge id=":2_0" function="internal">
        <lane id=":2_0_0" index="0" disallow="pedestrian tram rail_urban rail rail_electric ship" speed="36.11" length="2.99" width="17.89" shape="-549.59,-113.64 -552.54,-114.13"/>
    </edge>
    <edge id=":20_0" function="internal">
        <lane id=":20_0_0" index="0" disallow="pedestrian tram rail_urban rail rail_electric ship" speed="19.61" length="9.08" width="9.34" shape="3.46,244.27 3.40,244.94 3.37,245.55 3.34,246.11 3.33,246.61 3.33,247.08 3.33,247.52 3.32,247.92 3.32,248.31 3.30,248.68 3.27,249.04 3.23,249.40 3.17,249.77 3.08,250.15 2.97,250.55 2.82,250.98 2.64,251.44 2.42,251.93 2.16,252.48 1.86,253.07"/>
    </edge>
    <edge id=":21_0" function="internal">
        <lane id=":21_0_0" index="0" disallow="pedestrian tram rail_urban rail rail_electric ship" speed="36.11" length="2.99" width="7.42" shape="-157.38,228.55 -154.45,229.17"/>
    </edge>
    <edge id=":22_0" function="internal">
        <lane id=":22_0_0" index="0" disallow="pedestrian tram rail_urban rail rail_electric ship" speed="36.11" length="3.00" width="7.37" shape="-155.73,235.73 -158.66,235.10"/>
    </edge>
    <edge id=":23_0" function="internal">
        <lane id=":23_0_0" index="0" disallow="pedestrian tram rail_urban rail rail_electric ship" speed="36.11" length="2.76" width="9.60" shape="-605.74,-131.53 -603.05,-130.92"/>
    </edge>
    <edge id=":24_0" function="internal">
        <lane id=":24_0_0" index="0" disallow="pedestrian tram rail_urban rail rail_electric ship" speed="36.11" length="2.98" width="8.46" shape="-604.24,-43.79 -606.49,-45.75"/>
    </edge>
    <edge id=":25_0" function="internal">
        <lane id=":25_0_0" index="0" disallow="pedestrian tram rail_urban rail rail_electric ship" speed="35.76" length="15.36" width="9.42" shape="-651.29,-102.61 -651.39,-103.40 -651.53,-104.18 -651.70,-104.95 -651.91,-105.72 -652.14,-106.49 -652.41,-107.25 -652.69,-108.00 -653.00,-108.76 -653.32,-109.51 -653.66,-110.25 -654.01,-111.00 -654.36,-111.74 -654.73,-112.47 -655.09,-113.20 -655.46,-113.93 -655.82,-114.66 -656.18,-115.39 -656.53,-116.11 -656.87,-116.83"/>
    </edge>
    <edge id=":25_1" function="internal">
        <lane id=":25_1_0" index="0" disallow="pedestrian tram rail_urban rail rail_electric ship" speed="17.27" length="14.00" width="6.82" shape="-651.29,-102.61 -651.36,-103.39 -651.41,-104.16 -651.43,-104.91 -651.44,-105.65 -651.42,-106.38 -651.38,-107.10 -651.32,-107.82 -651.23,-108.53 -651.13,-109.23 -651.00,-109.93 -650.85,-110.62 -650.69,-111.32 -650.49,-112.01 -650.28,-112.70 -650.05,-113.40 -649.79,-114.10 -649.52,-114.80 -649.22,-115.51 -648.90,-116.22"/>
    </edge>
    <edge id=":25_2" function="internal">
        <lane id=":25_2_0" index="0" disallow="pedestrian tram rail_urban rail rail_electric ship" speed="36.11" length="15.35" width="9.42" shape="-651.27,-102.62 -651.38,-103.40 -651.52,-104.18 -651.69,-104.95 -651.90,-105.72 -652.14,-106.49 -652.40,-107.25 -652.69,-108.00 -653.00,-108.76 -653.32,-109.51 -653.66,-110.25 -654.01,-111.00 -654.36,-111.74 -654.73,-112.47 -655.10,-113.20 -655.46,-113.93 -655.82,-114.66 -656.18,-115.39 -656.53,-116.11 -656.87,-116.83"/>
    </edge>
    <edge id=":25_3" function="internal">
        <lane id=":25_3_0" index="0" disallow="pedestrian tram rail_urban rail rail_electric ship" speed="17.07" length="13.99" width="6.82" shape="-651.27,-102.62 -651.34,-103.39 -651.40,-104.16 -651.42,-104.91 -651.43,-105.65 -651.41,-106.38 -651.38,-107.10 -651.31,-107.82 -651.23,-108.53 -651.13,-109.23 -651.00,-109.93 -650.86,-110.62 -650.69,-111.32 -650.50,-112.01 -650.28,-112.70 -650.05,-113.40 -649.79,-114.10 -649.52,-114.80 -649.22,-115.51 -648.90,-116.22"/>
    </edge>
    <edge id=":26_0" function="internal">
        <lane id=":26_0_0" index="0" disallow="pedestrian tram rail_urban rail rail_electric ship" speed="36.11" length="3.06" width="14.46" shape="-555.40,-146.34 -552.40,-145.76"/>
    </edge>
    <edge id=":26_1" function="internal">
        <lane id=":26_1_0" index="0" disallow="pedestrian tram rail_urban rail rail_electric ship" speed="36.11" length="3.06" width="9.20" shape="-555.40,-146.34 -552.39,-145.78"/>
    </edge>
    <edge id=":27_0" function="internal">
        <lane id=":27_0_0" index="0" disallow="pedestrian tram rail_urban rail rail_electric ship" speed="36.11" length="3.13" width="6.69" shape="-247.05,-90.84 -243.97,-90.31"/>
    </edge>
    <edge id=":27_1" function="internal">
        <lane id=":27_1_0" index="0" disallow="pedestrian tram rail_urban rail rail_electric ship" speed="36.11" length="3.13" width="10.46" shape="-247.05,-90.84 -243.97,-90.31"/>
    </edge>
    <edge id=":28_0" function="internal">
        <lane id=":28_0_0" index="0" disallow="pedestrian tram rail_urban rail rail_electric ship" speed="36.11" length="3.07" width="45.67" shape="-245.14,-83.80 -245.36,-83.86 -245.56,-83.91 -245.74,-83.96 -245.90,-84.00 -246.05,-84.03 -246.19,-84.06 -246.32,-84.09 -246.45,-84.11 -246.57,-84.13 -246.69,-84.15 -246.81,-84.17 -246.94,-84.18 -247.07,-84.20 -247.21,-84.22 -247.36,-84.25 -247.53,-84.27 -247.72,-84.30 -247.92,-84.33 -248.15,-84.37"/>
    </edge>
    <edge id=":28_1" function="internal">
        <lane id=":28_1_0" index="0" disallow="pedestrian tram rail_urban rail rail_electric ship" speed="36.11" length="3.06" width="45.67" shape="-245.13,-83.85 -248.15,-84.37"/>
    </edge>
    <edge id=":29_0" function="internal">
        <lane id=":29_0_0" index="0" disallow="pedestrian tram rail_urban rail rail_electric ship" speed="36.11" length="2.99" width="9.05" shape="-553.93,-137.07 -556.88,-137.58"/>
    </edge>
    <edge id=":3_0" function="internal">
        <lane id=":3_0_0" index="0" disallow="pedestrian tram rail_urban rail rail_electric ship" speed="36.11" length="2.99" width="74.18" shape="-551.45,-120.99 -548.51,-120.43"/>
    </edge>
    <edge id=":30_0" function="internal">
        <lane id=":30_0_0" index="0" disallow="pedestrian tram rail_urban rail rail_electric ship" speed="36.11" length="2.92" width="7.15" shape="-244.57,-100.35 -241.70,-99.80"/>
    </edge>
    <edge id=":31_0" function="internal">
        <lane id=":31_0_0" index="0" disallow="pedestrian tram rail_urban rail rail_electric ship" speed="36.11" length="21.53" width="6.69" shape="-226.08,-94.49 -225.32,-94.12 -224.49,-93.67 -223.60,-93.15 -222.66,-92.58 -221.67,-91.95 -220.64,-91.29 -219.58,-90.60 -218.50,-89.89 -217.40,-89.18 -216.30,-88.47 -215.19,-87.78 -214.10,-87.11 -213.02,-86.48 -211.97,-85.90 -210.95,-85.38 -209.97,-84.92 -209.03,-84.54 -208.16,-84.26 -207.34,-84.07"/>
    </edge>
    <edge id=":31_1" function="internal">
        <lane id=":31_1_0" index="0" disallow="pedestrian tram rail_urban rail rail_electric ship" speed="36.11" length="21.43" width="6.69" shape="-228.47,-87.67 -207.34,-84.07"/>
    </edge>
    <edge id=":32_0" function="internal">
        <lane id=":32_0_0" index="0" disallow="pedestrian tram rail_urban rail rail_electric ship" speed="36.11" length="39.24" width="7.97" shape="-250.64,215.91 -289.09,208.06"/>
    </edge>
    <edge id=":32_1" function="internal">
        <lane id=":32_1_0" index="0" disallow="pedestrian tram rail_urban rail rail_electric ship" speed="23.87" length="39.83" width="7.44" shape="-250.64,215.91 -251.60,215.66 -252.89,215.25 -254.48,214.68 -256.33,213.98 -258.39,213.16 -260.62,212.24 -262.99,211.25 -265.44,210.18 -267.95,209.07 -270.46,207.93 -272.93,206.77 -275.33,205.61 -277.62,204.48 -279.74,203.38 -281.67,202.33 -283.35,201.35 -284.75,200.46 -285.83,199.68 -286.54,199.01"/>
    </edge>
    <edge id=":32_2" function="internal">
        <lane id=":32_2_0" index="0" disallow="pedestrian tram rail_urban rail rail_electric ship" speed="18.67" length="40.23" width="12.22" shape="-250.64,215.91 -252.51,215.47 -254.33,214.92 -256.12,214.27 -257.87,213.52 -259.57,212.66 -261.24,211.70 -262.87,210.64 -264.46,209.47 -266.01,208.20 -267.52,206.83 -268.99,205.35 -270.42,203.77 -271.81,202.09 -273.16,200.30 -274.47,198.42 -275.75,196.42 -276.98,194.33 -278.18,192.13 -279.33,189.83"/>
    </edge>
    <edge id=":33_0" function="internal">
        <lane id=":33_0_0" index="0" disallow="pedestrian tram rail_urban rail rail_electric ship" speed="36.11" length="3.51" width="8.35" shape="22.47,-26.35 22.50,-26.61 22.52,-26.84 22.55,-27.06 22.57,-27.25 22.60,-27.43 22.62,-27.59 22.64,-27.74 22.66,-27.88 22.68,-28.02 22.69,-28.16 22.71,-28.30 22.72,-28.45 22.73,-28.60 22.74,-28.76 22.74,-28.94 22.74,-29.13 22.74,-29.34 22.73,-29.58 22.72,-29.84"/>
    </edge>
    <edge id=":34_0" function="internal">
        <lane id=":34_0_0" index="0" disallow="pedestrian tram rail_urban rail rail_electric ship" speed="36.11" length="3.00" width="6.54" shape="-208.51,-77.59 -211.47,-78.10"/>
    </edge>
    <edge id=":35_0" function="internal">
        <lane id=":35_0_0" index="0" disallow="pedestrian tram rail_urban rail rail_electric ship" speed="36.11" length="2.95" width="7.01" shape="10.59,-47.06 13.49,-46.52"/>
    </edge>
    <edge id=":36_0" function="internal">
        <lane id=":36_0_0" index="0" disallow="pedestrian tram rail_urban rail rail_electric ship" speed="36.11" length="3.67" width="6.54" shape="29.49,-30.90 29.49,-30.63 29.48,-30.38 29.48,-30.16 29.47,-29.95 29.46,-29.77 29.45,-29.60 29.44,-29.44 29.43,-29.29 29.41,-29.14 29.39,-29.00 29.38,-28.85 29.36,-28.70 29.34,-28.54 29.31,-28.37 29.29,-28.19 29.27,-27.99 29.24,-27.77 29.22,-27.52 29.19,-27.25"/>
    </edge>
    <edge id=":37_0" function="internal">
        <lane id=":37_0_0" index="0" disallow="pedestrian tram rail_urban rail rail_electric ship" speed="18.61" length="21.63" width="18.11" shape="-603.55,-91.85 -604.00,-91.15 -604.42,-90.32 -604.82,-89.39 -605.19,-88.37 -605.54,-87.28 -605.87,-86.11 -606.17,-84.89 -606.45,-83.64 -606.70,-82.35 -606.93,-81.05 -607.13,-79.75 -607.31,-78.47 -607.46,-77.20 -607.59,-75.98 -607.70,-74.80 -607.77,-73.69 -607.83,-72.65 -607.86,-71.71 -607.86,-70.86"/>
    </edge>
    <edge id=":37_1" function="internal">
        <lane id=":37_1_0" index="0" disallow="pedestrian tram rail_urban rail rail_electric ship" speed="20.72" length="21.64" width="8.14" shape="-603.55,-91.85 -604.06,-91.18 -604.67,-90.47 -605.37,-89.72 -606.15,-88.94 -606.99,-88.14 -607.90,-87.33 -608.86,-86.50 -609.85,-85.68 -610.87,-84.86 -611.92,-84.05 -612.97,-83.27 -614.02,-82.52 -615.06,-81.80 -616.08,-81.13 -617.07,-80.50 -618.02,-79.94 -618.92,-79.44 -619.75,-79.01 -620.52,-78.66"/>
    </edge>
    <edge id=":37_2" function="internal">
        <lane id=":37_2_0" index="0" disallow="pedestrian tram rail_urban rail rail_electric ship" speed="17.87" length="21.45" width="18.11" shape="-603.16,-91.57 -603.62,-90.87 -604.05,-90.05 -604.47,-89.14 -604.86,-88.13 -605.24,-87.05 -605.59,-85.91 -605.92,-84.71 -606.22,-83.47 -606.51,-82.21 -606.76,-80.93 -607.00,-79.66 -607.20,-78.39 -607.38,-77.14 -607.53,-75.93 -607.66,-74.77 -607.75,-73.67 -607.82,-72.65 -607.85,-71.70 -607.86,-70.86"/>
    </edge>
    <edge id=":37_3" function="internal">
        <lane id=":37_3_0" index="0" disallow="pedestrian tram rail_urban rail rail_electric ship" speed="20.84" length="21.78" width="8.14" shape="-603.16,-91.57 -603.68,-90.91 -604.30,-90.20 -605.02,-89.47 -605.82,-88.70 -606.69,-87.92 -607.62,-87.12 -608.61,-86.32 -609.63,-85.51 -610.68,-84.72 -611.75,-83.93 -612.83,-83.17 -613.91,-82.44 -614.98,-81.74 -616.02,-81.08 -617.03,-80.47 -617.99,-79.92 -618.90,-79.43 -619.75,-79.01 -620.52,-78.66"/>
    </edge>
    <edge id=":38_0" function="internal">
        <lane id=":38_0_0" index="0" disallow="pedestrian tram rail_urban rail rail_electric ship" speed="36.11" length="2.95" width="56.40" shape="13.01,-39.83 10.11,-40.37"/>
    </edge>
    <edge id=":39_0" function="internal">
        <lane id=":39_0_0" index="0" disallow="pedestrian tram rail_urban rail rail_electric ship" speed="36.11" length="5.10" width="10.38" shape="-603.44,-145.66 -608.46,-146.56"/>
    </edge>
    <edge id=":4_0" function="internal">
        <lane id=":4_0_0" index="0" disallow="pedestrian tram rail_urban rail rail_electric ship" speed="36.11" length="3.00" width="6.65" shape="-361.30,-86.56 -358.35,-86.03"/>
    </edge>
    <edge id=":40_0" function="internal">
        <lane id=":40_0_0" index="0" disallow="pedestrian tram rail_urban rail rail_electric ship" speed="36.11" length="3.00" width="6.59" shape="-281.01,172.94 -279.85,175.71"/>
    </edge>
    <edge id=":41_0" function="internal">
        <lane id=":41_0_0" index="0" disallow="pedestrian tram rail_urban rail rail_electric ship" speed="26.67" length="89.30" width="6.60" shape="-272.84,192.16 -272.04,193.57 -270.85,195.00 -269.26,196.45 -267.27,197.90 -264.89,199.38 -262.12,200.87 -258.94,202.38 -255.37,203.90 -251.41,205.44 -247.05,207.00 -242.29,208.57 -237.13,210.15 -231.58,211.76 -225.64,213.38 -219.30,215.01 -212.56,216.66 -205.42,218.33 -197.89,220.01 -189.97,221.71"/>
    </edge>
    <edge id=":41_1" function="internal">
        <lane id=":41_1_0" index="0" disallow="pedestrian tram rail_urban rail rail_electric ship" speed="36.11" length="89.04" width="6.60" shape="-276.40,200.68 -275.23,201.34 -272.96,202.18 -269.71,203.19 -265.61,204.34 -260.80,205.61 -255.39,206.98 -249.52,208.41 -243.31,209.88 -236.91,211.37 -230.42,212.85 -223.99,214.30 -217.75,215.69 -211.81,217.00 -206.32,218.20 -201.39,219.26 -197.17,220.17 -193.77,220.90 -191.32,221.42 -189.97,221.71"/>
    </edge>
    <edge id=":41_2" function="internal">
        <lane id=":41_2_0" index="0" disallow="pedestrian tram rail_urban rail rail_electric ship" speed="36.11" length="89.26" width="6.60" shape="-277.36,203.53 -189.97,221.71"/>
    </edge>
    <edge id=":42_0" function="internal">
        <lane id=":42_0_0" index="0" disallow="pedestrian tram rail_urban rail rail_electric ship" speed="36.11" length="3.02" width="6.66" shape="-565.35,-48.44 -563.07,-46.46"/>
    </edge>
    <edge id=":42_1" function="internal">
        <lane id=":42_1_0" index="0" disallow="pedestrian tram rail_urban rail rail_electric ship" speed="36.11" length="3.07" width="19.48" shape="-565.35,-48.44 -565.19,-48.28 -565.04,-48.13 -564.91,-48.00 -564.79,-47.88 -564.68,-47.76 -564.59,-47.66 -564.50,-47.56 -564.41,-47.46 -564.34,-47.37 -564.26,-47.27 -564.18,-47.18 -564.11,-47.08 -564.03,-46.97 -563.94,-46.85 -563.85,-46.73 -563.75,-46.59 -563.64,-46.44 -563.52,-46.27 -563.38,-46.09"/>
    </edge>
    <edge id=":43_0" function="internal">
        <lane id=":43_0_0" index="0" disallow="pedestrian tram rail_urban rail rail_electric ship" speed="36.11" length="90.96" width="7.51" shape="-559.60,-30.90 -558.97,-29.68 -557.57,-27.63 -555.47,-24.83 -552.79,-21.39 -549.59,-17.41 -545.97,-13.00 -542.02,-8.24 -537.83,-3.24 -533.49,1.89 -529.08,7.06 -524.70,12.17 -520.43,17.12 -516.36,21.80 -512.58,26.12 -509.19,29.97 -506.26,33.26 -503.89,35.88 -502.17,37.74 -501.18,38.73"/>
    </edge>
    <edge id=":43_1" function="internal">
        <lane id=":43_1_0" index="0" disallow="pedestrian tram rail_urban rail rail_electric ship" speed="36.11" length="95.37" width="7.51" shape="-572.41,-24.68 -501.18,38.73"/>
    </edge>
    <edge id=":44_0" function="internal">
        <lane id=":44_0_0" index="0" disallow="pedestrian tram rail_urban rail rail_electric ship" speed="36.11" length="0.34" width="9.73" shape="-604.53,-155.37 -604.19,-155.32"/>
    </edge>
    <edge id=":45_0" function="internal">
        <lane id=":45_0_0" index="0" disallow="pedestrian tram rail_urban rail rail_electric ship" speed="36.11" length="2.55" width="10.49" shape="-293.95,207.13 -294.14,207.09 -294.30,207.06 -294.46,207.03 -294.60,207.00 -294.72,206.97 -294.84,206.95 -294.95,206.93 -295.05,206.90 -295.15,206.88 -295.25,206.86 -295.35,206.83 -295.45,206.81 -295.56,206.78 -295.67,206.75 -295.80,206.71 -295.93,206.67 -296.08,206.63 -296.25,206.58 -296.43,206.53"/>
    </edge>
    <edge id=":46_0" function="internal">
        <lane id=":46_0_0" index="0" disallow="pedestrian tram rail_urban rail rail_electric ship" speed="36.11" length="10.78" width="7.02" shape="-343.90,184.74 -344.54,184.35 -345.15,184.01 -345.72,183.72 -346.26,183.48 -346.77,183.27 -347.26,183.09 -347.73,182.93 -348.19,182.78 -348.63,182.63 -349.07,182.49 -349.51,182.34 -349.95,182.16 -350.39,181.97 -350.85,181.74 -351.32,181.48 -351.81,181.17 -352.32,180.81 -352.86,180.39 -353.44,179.90"/>
    </edge>
    <edge id=":46_1" function="internal">
        <lane id=":46_1_0" index="0" disallow="pedestrian tram rail_urban rail rail_electric ship" speed="16.47" length="37.95" width="7.02" shape="-334.52,153.90 -337.62,155.53 -340.48,157.13 -343.11,158.70 -345.51,160.24 -347.67,161.75 -349.61,163.23 -351.30,164.69 -352.77,166.11 -353.99,167.51 -354.99,168.88 -355.75,170.22 -356.28,171.53 -356.58,172.81 -356.64,174.06 -356.46,175.29 -356.06,176.48 -355.42,177.65 -354.54,178.79 -353.44,179.90"/>
    </edge>
    <edge id=":46_2" function="internal">
        <lane id=":46_2_0" index="0" disallow="pedestrian tram rail_urban rail rail_electric ship" speed="11.54" length="43.59" width="7.02" shape="-338.88,145.66 -339.15,148.92 -339.45,152.18 -339.79,155.40 -340.17,158.57 -340.61,161.64 -341.09,164.60 -341.63,167.41 -342.23,170.06 -342.88,172.50 -343.60,174.72 -344.38,176.69 -345.24,178.37 -346.17,179.74 -347.17,180.77 -348.25,181.44 -349.42,181.71 -350.67,181.57 -352.01,180.97 -353.44,179.90"/>
    </edge>
    <edge id=":47_0" function="internal">
        <lane id=":47_0_0" index="0" disallow="pedestrian tram rail_urban rail rail_electric ship" speed="36.11" length="29.62" width="9.73" shape="-648.82,-116.40 -648.41,-117.21 -647.85,-118.18 -647.15,-119.29 -646.34,-120.52 -645.43,-121.86 -644.44,-123.29 -643.38,-124.78 -642.28,-126.32 -641.15,-127.88 -640.01,-129.45 -638.87,-131.02 -637.75,-132.55 -636.68,-134.03 -635.66,-135.44 -634.71,-136.76 -633.86,-137.98 -633.12,-139.07 -632.51,-140.01 -632.04,-140.78"/>
    </edge>
    <edge id=":47_1" function="internal">
        <lane id=":47_1_0" index="0" disallow="pedestrian tram rail_urban rail rail_electric ship" speed="12.57" length="29.32" width="9.02" shape="-648.82,-116.40 -647.91,-118.29 -646.98,-120.06 -646.02,-121.71 -645.03,-123.24 -644.02,-124.66 -642.97,-125.96 -641.90,-127.14 -640.81,-128.20 -639.69,-129.14 -638.54,-129.97 -637.36,-130.68 -636.16,-131.26 -634.92,-131.74 -633.67,-132.09 -632.38,-132.33 -631.07,-132.44 -629.73,-132.44 -628.36,-132.32 -626.97,-132.09"/>
    </edge>
    <edge id=":47_2" function="internal">
        <lane id=":47_2_0" index="0" disallow="pedestrian tram rail_urban rail rail_electric ship" speed="15.80" length="30.17" width="14.67" shape="-648.82,-116.40 -648.20,-117.64 -647.51,-118.84 -646.74,-119.99 -645.90,-121.09 -644.99,-122.15 -644.00,-123.16 -642.93,-124.12 -641.80,-125.03 -640.58,-125.90 -639.30,-126.72 -637.94,-127.50 -636.50,-128.23 -634.99,-128.91 -633.41,-129.55 -631.75,-130.14 -630.02,-130.68 -628.21,-131.17 -626.33,-131.62 -624.38,-132.02"/>
    </edge>
    <edge id=":48_0" function="internal">
        <lane id=":48_0_0" index="0" disallow="pedestrian tram rail_urban rail rail_electric ship" speed="36.11" length="3.34" width="7.07" shape="-601.98,-51.28 -601.82,-51.09 -601.68,-50.91 -601.55,-50.76 -601.42,-50.62 -601.31,-50.50 -601.20,-50.39 -601.10,-50.29 -601.00,-50.20 -600.90,-50.11 -600.80,-50.02 -600.69,-49.93 -600.59,-49.84 -600.48,-49.75 -600.36,-49.65 -600.22,-49.54 -600.08,-49.43 -599.93,-49.29 -599.76,-49.15 -599.57,-48.98"/>
    </edge>
    <edge id=":49_0" function="internal">
        <lane id=":49_0_0" index="0" disallow="pedestrian tram rail_urban rail rail_electric ship" speed="24.12" length="1.87" width="35.81" shape="-322.85,148.17 -322.98,148.20 -323.11,148.23 -323.22,148.25 -323.32,148.28 -323.41,148.30 -323.49,148.32 -323.57,148.35 -323.65,148.37 -323.72,148.40 -323.78,148.43 -323.85,148.46 -323.92,148.49 -324.00,148.53 -324.08,148.56 -324.16,148.61 -324.25,148.66 -324.35,148.71 -324.47,148.77 -324.59,148.83"/>
    </edge>
    <edge id=":5_0" function="internal">
        <lane id=":5_0_0" index="0" disallow="pedestrian tram rail_urban rail rail_electric ship" speed="14.33" length="7.52" width="6.67" shape="-301.63,-71.83 -302.04,-72.11 -302.43,-72.30 -302.78,-72.40 -303.12,-72.43 -303.44,-72.39 -303.74,-72.29 -304.03,-72.14 -304.32,-71.95 -304.61,-71.74 -304.90,-71.51 -305.20,-71.27 -305.52,-71.04 -305.85,-70.82 -306.19,-70.61 -306.57,-70.45 -306.97,-70.32 -307.41,-70.24 -307.89,-70.23 -308.40,-70.29"/>
    </edge>
    <edge id=":50_0" function="internal">
        <lane id=":50_0_0" index="0" disallow="pedestrian tram rail_urban rail rail_electric ship" speed="36.11" length="3.01" width="6.91" shape="-564.34,-8.64 -566.63,-10.60"/>
    </edge>
    <edge id=":50_1" function="internal">
        <lane id=":50_1_0" index="0" disallow="pedestrian tram rail_urban rail rail_electric ship" speed="13.97" length="17.80" width="15.73" shape="-564.34,-8.64 -564.45,-8.87 -564.57,-9.32 -564.68,-9.98 -564.79,-10.82 -564.89,-11.80 -564.99,-12.91 -565.09,-14.12 -565.18,-15.39 -565.27,-16.70 -565.35,-18.04 -565.42,-19.36 -565.49,-20.64 -565.55,-21.86 -565.61,-22.99 -565.65,-24.00 -565.69,-24.87 -565.72,-25.57 -565.74,-26.07 -565.76,-26.35"/>
    </edge>
    <edge id=":51_0" function="internal">
        <lane id=":51_0_0" index="0" disallow="pedestrian tram rail_urban rail rail_electric ship" speed="15.58" length="39.15" width="31.48" shape="-360.76,163.55 -360.96,163.24 -360.94,162.84 -360.71,162.37 -360.27,161.80 -359.62,161.16 -358.75,160.43 -357.68,159.61 -356.39,158.72 -354.88,157.74 -353.17,156.67 -351.24,155.53 -349.10,154.29 -346.74,152.98 -344.18,151.58 -341.40,150.10 -338.40,148.54 -335.20,146.89 -331.78,145.16 -328.15,143.34"/>
    </edge>
    <edge id=":51_1" function="internal">
        <lane id=":51_1_0" index="0" disallow="pedestrian tram rail_urban rail rail_electric ship" speed="36.11" length="24.57" width="9.90" shape="-360.76,163.55 -351.93,140.62"/>
    </edge>
    <edge id=":51_2" function="internal">
        <lane id=":51_2_0" index="0" disallow="pedestrian tram rail_urban rail rail_electric ship" speed="36.11" length="32.12" width="7.76" shape="-360.76,163.55 -360.05,164.15 -359.13,164.89 -358.02,165.74 -356.74,166.71 -355.32,167.75 -353.78,168.87 -352.15,170.04 -350.46,171.24 -348.72,172.47 -346.97,173.69 -345.22,174.91 -343.51,176.08 -341.85,177.21 -340.28,178.28 -338.81,179.26 -337.47,180.14 -336.29,180.91 -335.29,181.54 -334.50,182.02"/>
    </edge>
    <edge id=":52_0" function="internal">