<?xml version="1.0" encoding="UTF-8"?>

<!-- generated on 2024-10-17 14:56:51.627100 by randomTrips.py UNKNOWN
<configuration>
    <net-file value="/home/mangaldeep/workspace/carla/tegel_maps/SU_tegel_map_10_10_24.net.xml"/>
    <additional-files value="/home/mangaldeep/workspace/carla/tegel_maps/SU_tegel_map_10_10_24.add.xml"/>
    <output-trip-file value="/home/mangaldeep/workspace/carla/tegel_maps/SU_tegel_map_10_10_24.vehicles.trips.xml"/>
    <route-file value="/home/mangaldeep/workspace/carla/tegel_maps/SU_tegel_map_10_10_24.vehicles.rou.xml"/>
    <trip-attributes value="departLane=&quot;best&quot; departSpeed=&quot;max&quot; departPos=&quot;random_free&quot;"/>
    <fringe-factor value="2147483646"/>
    <seed value="1234"/>
    <validate value="True"/>
    <end value="30.0"/>
    <period value="0.05304983501501308"/>
</configuration>
-->

<!-- generated on 2024-10-17 14:56:51 by Eclipse SUMO duarouter Version 1.21.0
<duarouterConfiguration xmlns:xsi="http://www.w3.org/2001/XMLSchema-instance" xsi:noNamespaceSchemaLocation="http://sumo.dlr.de/xsd/duarouterConfiguration.xsd">

    <input>
        <net-file value="/home/mangaldeep/workspace/carla/tegel_maps/SU_tegel_map_10_10_24.net.xml"/>
        <additional-files value="/home/mangaldeep/workspace/carla/tegel_maps/SU_tegel_map_10_10_24.add.xml"/>
        <route-files value="/home/mangaldeep/workspace/carla/tegel_maps/SU_tegel_map_10_10_24.vehicles.trips.xml"/>
    </input>

    <output>
        <output-file value="/home/mangaldeep/workspace/carla/tegel_maps/SU_tegel_map_10_10_24.vehicles.rou.xml"/>
        <alternatives-output value="NUL"/>
    </output>

    <time>
        <begin value="0.0"/>
        <end value="30.0"/>
    </time>

    <report>
        <no-warnings value="true"/>
        <ignore-errors value="true"/>
        <no-step-log value="true"/>
    </report>

</duarouterConfiguration>
-->

<routes xmlns:xsi="http://www.w3.org/2001/XMLSchema-instance" xsi:noNamespaceSchemaLocation="http://sumo.dlr.de/xsd/routes_file.xsd">
    <vType id="truck" length="7.50" minGap="2.50" maxSpeed="36.11" probability="0.80" speedFactor="normc(0.94,0.20,0.20,2.00)" vClass="truck" impatience="0.04" guiShape="truck" width="2.60" lcStrategic="91.35" lcCooperative="1.40" lcSpeedGain="18.16" lcKeepRight="0.87" lcImpatience="0.45" lcMaxSpeedLatStanding="0.00" lcSigma="0.20" accel="1.07" decel="3.11" sigma="0.51"/>
    <vehicle id="0" depart="0.00" departLane="best" departPos="random_free" departSpeed="max">
        <route edges="8 10 12 16 18 23 25 27 29 44 60 61 32 31 33"/>
    </vehicle>
    <vType id="passenger" length="5.00" minGap="2.50" maxSpeed="50.00" probability="4.00" speedFactor="normc(0.99,0.15,0.20,2.00)" vClass="passenger" impatience="0.34" guiShape="passenger" width="2.00" lcStrategic="87.86" lcCooperative="1.23" lcSpeedGain="14.21" lcKeepRight="0.87" lcImpatience="0.16" lcMaxSpeedLatStanding="0.00" lcSigma="0.16" accel="2.42" decel="5.62" sigma="0.51"/>
    <vehicle id="1" depart="0.05" departLane="best" departPos="random_free" departSpeed="max">
        <route edges="1 3 51 79 70 33"/>
    </vehicle>
    <vehicle id="2" depart="0.11" departLane="best" departPos="random_free" departSpeed="max">
        <route edges="76 69 61 32 31 33"/>
    </vehicle>
    <vehicle id="3" depart="0.16" departLane="best" departPos="random_free" departSpeed="max">
        <route edges="56 55 57 71 73 75 79 70 33"/>
    </vehicle>
    <vehicle id="4" depart="0.21" departLane="best" departPos="random_free" departSpeed="max">
        <route edges="62 68 28 26 24 19 17 13 11 9 7 2 1 3 51 79 70 33"/>
    </vehicle>
    <vehicle id="5" depart="0.27" departLane="best" departPos="random_free" departSpeed="max">
        <route edges="11 9 7 2 1 3 51 79 70 33"/>
    </vehicle>
    <vehicle id="6" depart="0.32" departLane="best" departPos="random_free" departSpeed="max">
        <route edges="31 33"/>
    </vehicle>
    <vehicle id="7" depart="0.37" departLane="best" departPos="random_free" departSpeed="max">
        <route edges="52 72 63 51 79 70 33"/>
    </vehicle>
    <vehicle id="8" depart="0.42" departLane="best" departPos="random_free" departSpeed="max">
        <route edges="21 18 23 25 27 29 44 60 61 32 31 33"/>
    </vehicle>
    <vehicle id="9" depart="0.48" departLane="best" departPos="random_free" departSpeed="max">
        <route edges="10 12 16 18 23 25 27 29 44 60 61 32 31 33"/>
    </vehicle>
    <vehicle id="10" depart="0.53" departLane="best" departPos="random_free" departSpeed="max">
        <route edges="8 10 12 16 18 23 25 27 29 44 60 61 32 31 33"/>
    </vehicle>
    <vehicle id="11" depart="0.58" departLane="best" departPos="random_free" departSpeed="max">
        <route edges="46 66 65 61 32 31 33"/>
    </vehicle>
    <vehicle id="12" depart="0.64" departLane="best" departPos="random_free" departSpeed="max">
        <route edges="50 64 57 71 73 75 79 70 33"/>
    </vehicle>
    <vehicle id="13" depart="0.69" departLane="best" departPos="random_free" departSpeed="max">
        <route edges="49 21 18 23 25 27 29 44 60 61 32 31 33"/>
    </vehicle>
    <vehicle id="14" depart="0.74" departLane="best" departPos="random_free" departSpeed="max">
        <route edges="48 39 38 40 52 72 63 51 79 70 33"/>
    </vehicle>
    <vehicle id="15" depart="0.80" departLane="best" departPos="random_free" departSpeed="max">
        <route edges="42 43 49 21 18 23 25 27 29 44 60 61 32 31 33"/>
    </vehicle>
    <vehicle id="16" depart="0.85" departLane="best" departPos="random_free" departSpeed="max">
        <route edges="25 27 29 44 60 61 32 31 33"/>
    </vehicle>
    <vehicle id="17" depart="0.90" departLane="best" departPos="random_free" departSpeed="max">
        <route edges="40 52 72 63 51 79 70 33"/>
    </vehicle>
    <vehicle id="18" depart="0.95" departLane="best" departPos="random_free" departSpeed="max">
        <route edges="10 12 16 18 23 25 27 29 44 60 61 32 31 33"/>
    </vehicle>
    <vehicle id="19" depart="1.01" departLane="best" departPos="random_free" departSpeed="max">
        <route edges="1 3 51 79 70 33"/>
    </vehicle>
    <vehicle id="20" depart="1.06" departLane="best" departPos="random_free" departSpeed="max">
        <route edges="42 43 49 21 18 23 25 27 29 44 60 61 32 31 33"/>
    </vehicle>
    <vehicle id="21" depart="1.11" departLane="best" departPos="random_free" departSpeed="max">
        <route edges="12 16 18 23 25 27 29 44 60 61 32 31 33"/>
    </vehicle>
    <vehicle id="22" depart="1.17" departLane="best" departPos="random_free" departSpeed="max">
        <route edges="2 1 3 51 79 70 33"/>
    </vehicle>
    <vehicle id="23" depart="1.22" departLane="best" departPos="random_free" departSpeed="max">
        <route edges="19 17 13 11 9 7 2 1 3 51 79 70 33"/>
    </vehicle>
    <vType id="bus" length="12.40" minGap="2.50" maxSpeed="23.61" probability="0.30" speedFactor="normc(1.00,0.17,0.20,2.00)" vClass="bus" impatience="0.11" guiShape="bus" width="2.70" lcStrategic="91.20" lcCooperative="2.67" lcSpeedGain="9.88" lcKeepRight="0.80" lcImpatience="0.23" lcMaxSpeedLatStanding="0.00" lcSigma="0.16" accel="1.19" decel="3.52" sigma="0.54"/>
    <vehicle id="24" depart="1.27" departLane="best" departPos="random_free" departSpeed="max">
        <route edges="62 68 28 26 24 19 17 13 11 9 7 2 1 3 51 79 70 33"/>
    </vehicle>
    <vehicle id="25" depart="1.33" departLane="best" departPos="random_free" departSpeed="max">
        <route edges="19 17 13 11 9 7 2 1 3 51 79 70 33"/>
    </vehicle>
    <vehicle id="26" depart="1.38" departLane="best" departPos="random_free" departSpeed="max">
        <route edges="11 9 7 2 1 3 51 79 70 33"/>
    </vehicle>
    <vehicle id="27" depart="1.43" departLane="best" departPos="random_free" departSpeed="max">
        <route edges="66 65 61 32 31 33"/>
    </vehicle>
    <vehicle id="28" depart="1.49" departLane="best" departPos="random_free" departSpeed="max">
        <route edges="2 1 3 51 79 70 33"/>
    </vehicle>
    <vehicle id="29" depart="1.54" departLane="best" departPos="random_free" departSpeed="max">
        <route edges="2 1 3 51 79 70 33"/>
    </vehicle>
    <vehicle id="30" depart="1.59" departLane="best" departPos="random_free" departSpeed="max">
        <route edges="11 9 7 2 1 3 51 79 70 33"/>
    </vehicle>
    <vehicle id="31" depart="1.64" departLane="best" departPos="random_free" departSpeed="max">
        <route edges="32 31 33"/>
    </vehicle>
    <vehicle id="32" depart="1.70" departLane="best" departPos="random_free" departSpeed="max">
        <route edges="66 65 61 32 31 33"/>
    </vehicle>
    <vehicle id="33" depart="1.75" departLane="best" departPos="random_free" departSpeed="max">
        <route edges="64 57 71 73 75 79 70 33"/>
    </vehicle>
    <vehicle id="34" depart="1.80" departLane="best" departPos="random_free" departSpeed="max">
        <route edges="66 65 61 32 31 33"/>
    </vehicle>
    <vehicle id="35" depart="1.86" departLane="best" departPos="random_free" departSpeed="max">
        <route edges="4 6 8 10 12 16 18 23 25 27 29 44 60 61 32 31 33"/>
    </vehicle>
    <vehicle id="36" depart="1.91" departLane="best" departPos="random_free" departSpeed="max">
        <route edges="66 65 61 32 31 33"/>
    </vehicle>
    <vehicle id="37" depart="1.96" departLane="best" departPos="random_free" departSpeed="max">
        <route edges="17 13 11 9 7 2 1 3 51 79 70 33"/>
    </vehicle>
    <vehicle id="38" depart="2.02" departLane="best" departPos="random_free" departSpeed="max">
        <route edges="4 6 8 10 12 16 18 23 25 27 29 44 60 61 32 31 33"/>
    </vehicle>
    <vehicle id="39" depart="2.07" departLane="best" departPos="random_free" departSpeed="max">
        <route edges="46 66 65 61 32 31 33"/>
    </vehicle>
    <vehicle id="40" depart="2.12" departLane="best" departPos="random_free" departSpeed="max">
        <route edges="42 43 49 21 18 23 25 27 29 44 60 61 32 31 33"/>
    </vehicle>
    <vType id="bicycle" length="2.00" minGap="1.00" maxSpeed="6.94" probability="0.20" speedFactor="normc(1.04,0.16,0.20,2.00)" vClass="bicycle" impatience="0.04" guiShape="bicycle" width="0.68" lcStrategic="99.00" lcCooperative="2.70" lcSpeedGain="8.46" lcKeepRight="0.89" lcImpatience="0.31" lcMaxSpeedLatStanding="0.00" lcSigma="0.15" accel="1.02" decel="2.63" sigma="0.51"/>
    <vehicle id="41" depart="2.18" departLane="best" departPos="random_free" departSpeed="max">
        <route edges="55 57 71 73 75 79 70 33"/>
    </vehicle>
    <vehicle id="42" depart="2.23" departLane="best" departPos="random_free" departSpeed="max">
        <route edges="31 33"/>
    </vehicle>
    <vehicle id="43" depart="2.28" departLane="best" departPos="random_free" departSpeed="max">
        <route edges="66 65 61 32 31 33"/>
    </vehicle>
    <vehicle id="44" depart="2.33" departLane="best" departPos="random_free" departSpeed="max">
        <route edges="74 73 75 79 70 33"/>
    </vehicle>
    <vehicle id="45" depart="2.39" departLane="best" departPos="random_free" departSpeed="max">
        <route edges="2 1 3 51 79 70 33"/>
    </vehicle>
    <vehicle id="46" depart="2.44" departLane="best" departPos="random_free" departSpeed="max">
        <route edges="59 36 41 42 43 49 21 18 23 25 27 29 44 60 61 32 31 33"/>
    </vehicle>
    <vehicle id="47" depart="2.49" departLane="best" departPos="random_free" departSpeed="max">
        <route edges="40 52 72 63 51 79 70 33"/>
    </vehicle>
    <vehicle id="48" depart="2.55" departLane="best" departPos="random_free" departSpeed="max">
        <route edges="37 43 49 21 18 23 25 27 29 44 60 61 32 31 33"/>
    </vehicle>
    <vehicle id="49" depart="2.60" departLane="best" departPos="random_free" departSpeed="max">
        <route edges="28 26 24 19 17 13 11 9 7 2 1 3 51 79 70 33"/>
    </vehicle>
    <vehicle id="50" depart="2.65" departLane="best" departPos="random_free" departSpeed="max">
        <route edges="44 60 61 32 31 33"/>
    </vehicle>
    <vehicle id="51" depart="2.71" departLane="best" departPos="random_free" departSpeed="max">
        <route edges="76 69 61 32 31 33"/>
    </vehicle>
    <vehicle id="52" depart="2.76" departLane="best" departPos="random_free" departSpeed="max">
        <route edges="3 51 79 70 33"/>
    </vehicle>
    <vehicle id="53" depart="2.81" departLane="best" departPos="random_free" departSpeed="max">
        <route edges="13 11 9 7 2 1 3 51 79 70 33"/>
    </vehicle>
    <vehicle id="54" depart="2.86" departLane="best" departPos="random_free" departSpeed="max">
        <route edges="14 38 40 52 72 63 51 79 70 33"/>
    </vehicle>
    <vehicle id="55" depart="2.92" departLane="best" departPos="random_free" departSpeed="max">
        <route edges="22 25 27 29 44 60 61 32 31 33"/>
    </vehicle>
    <vehicle id="56" depart="2.97" departLane="best" departPos="random_free" departSpeed="max">
        <route edges="58 75 79 70 33"/>
    </vehicle>
    <vehicle id="57" depart="3.02" departLane="best" departPos="random_free" departSpeed="max">
        <route edges="44 60 61 32 31 33"/>
    </vehicle>
    <vehicle id="58" depart="3.08" departLane="best" departPos="random_free" departSpeed="max">
        <route edges="35 37 43 49 21 18 23 25 27 29 44 60 61 32 31 33"/>
    </vehicle>
    <vehicle id="59" depart="3.13" departLane="best" departPos="random_free" departSpeed="max">
        <route edges="45 74 73 75 79 70 33"/>
    </vehicle>
    <vehicle id="60" depart="3.18" departLane="best" departPos="random_free" departSpeed="max">
        <route edges="20 47 48 39 38 40 52 72 63 51 79 70 33"/>
    </vehicle>
    <vehicle id="61" depart="3.24" departLane="best" departPos="random_free" departSpeed="max">
        <route edges="29 44 60 61 32 31 33"/>
    </vehicle>
    <vehicle id="62" depart="3.29" departLane="best" departPos="random_free" departSpeed="max">
        <route edges="46 66 65 61 32 31 33"/>
    </vehicle>
    <vehicle id="63" depart="3.34" departLane="best" departPos="random_free" departSpeed="max">
        <route edges="62 68 28 26 24 19 17 13 11 9 7 2 1 3 51 79 70 33"/>
    </vehicle>
    <vehicle id="64" depart="3.40" departLane="best" departPos="random_free" departSpeed="max">
        <route edges="31 33"/>
    </vehicle>
    <vehicle id="65" depart="3.45" departLane="best" departPos="random_free" departSpeed="max">
        <route edges="52 72 63 51 79 70 33"/>
    </vehicle>
    <vehicle id="66" depart="3.50" departLane="best" departPos="random_free" departSpeed="max">
        <route edges="68 28 26 24 19 17 13 11 9 7 2 1 3 51 79 70 33"/>
    </vehicle>
    <vehicle id="67" depart="3.55" departLane="best" departPos="random_free" departSpeed="max">
        <route edges="30 5 4 6 8 10 12 16 18 23 25 27 29 44 60 61 32 31 33"/>
    </vehicle>
    <vehicle id="68" depart="3.61" departLane="best" departPos="random_free" departSpeed="max">
        <route edges="56 55 57 71 73 75 79 70 33"/>
    </vehicle>
    <vehicle id="69" depart="3.66" departLane="best" departPos="random_free" departSpeed="max">
        <route edges="61 32 31 33"/>
    </vehicle>
    <vehicle id="70" depart="3.71" departLane="best" departPos="random_free" departSpeed="max">
        <route edges="23 25 27 29 44 60 61 32 31 33"/>
    </vehicle>
    <vehicle id="71" depart="3.77" departLane="best" departPos="random_free" departSpeed="max">
        <route edges="60 61 32 31 33"/>
    </vehicle>
    <vehicle id="72" depart="3.82" departLane="best" departPos="random_free" departSpeed="max">
        <route edges="67 54 53 28 26 24 19 17 13 11 9 7 2 1 3 51 79 70 33"/>
    </vehicle>
    <vehicle id="73" depart="3.87" departLane="best" departPos="random_free" departSpeed="max">
        <route edges="7 2 1 3 51 79 70 33"/>
    </vehicle>
    <vehicle id="74" depart="3.93" departLane="best" departPos="random_free" departSpeed="max">
        <route edges="46 66 65 61 32 31 33"/>
    </vehicle>
    <vehicle id="75" depart="3.98" departLane="best" departPos="random_free" departSpeed="max">
        <route edges="39 38 40 52 72 63 51 79 70 33"/>
    </vehicle>
    <vehicle id="76" depart="4.03" departLane="best" departPos="random_free" departSpeed="max">
        <route edges="68 28 26 24 19 17 13 11 9 7 2 1 3 51 79 70 33"/>
    </vehicle>
    <vehicle id="77" depart="4.08" departLane="best" departPos="random_free" departSpeed="max">
        <route edges="15 12 16 18 23 25 27 29 44 60 61 32 31 33"/>
    </vehicle>
    <vehicle id="78" depart="4.14" departLane="best" departPos="random_free" departSpeed="max">
        <route edges="38 40 52 72 63 51 79 70 33"/>
    </vehicle>
    <vehicle id="79" depart="4.19" departLane="best" departPos="random_free" departSpeed="max">
        <route edges="27 29 44 60 61 32 31 33"/>
    </vehicle>
    <vehicle id="80" depart="4.24" departLane="best" departPos="random_free" departSpeed="max">
        <route edges="36 41 42 43 49 21 18 23 25 27 29 44 60 61 32 31 33"/>
    </vehicle>
    <vehicle id="81" depart="4.30" departLane="best" departPos="random_free" departSpeed="max">
        <route edges="59 36 41 42 43 49 21 18 23 25 27 29 44 60 61 32 31 33"/>
    </vehicle>
    <vehicle id="82" depart="4.35" departLane="best" departPos="random_free" departSpeed="max">
        <route edges="12 16 18 23 25 27 29 44 60 61 32 31 33"/>
    </vehicle>
    <vehicle id="83" depart="4.40" departLane="best" departPos="random_free" departSpeed="max">
        <route edges="4 6 8 10 12 16 18 23 25 27 29 44 60 61 32 31 33"/>
    </vehicle>
    <vehicle id="84" depart="4.46" departLane="best" departPos="random_free" departSpeed="max">
        <route edges="2 1 3 51 79 70 33"/>
    </vehicle>
    <vehicle id="85" depart="4.51" departLane="best" departPos="random_free" departSpeed="max">
        <route edges="14 38 40 52 72 63 51 79 70 33"/>
    </vehicle>
    <vehicle id="86" depart="4.56" departLane="best" departPos="random_free" departSpeed="max">
        <route edges="39 38 40 52 72 63 51 79 70 33"/>
    </vehicle>
    <vehicle id="87" depart="4.62" departLane="best" departPos="random_free" departSpeed="max">
        <route edges="42 43 49 21 18 23 25 27 29 44 60 61 32 31 33"/>
    </vehicle>
    <vehicle id="88" depart="4.67" departLane="best" departPos="random_free" departSpeed="max">
        <route edges="42 43 49 21 18 23 25 27 29 44 60 61 32 31 33"/>
    </vehicle>
    <vehicle id="89" depart="4.72" departLane="best" departPos="random_free" departSpeed="max">
        <route edges="35 37 43 49 21 18 23 25 27 29 44 60 61 32 31 33"/>
    </vehicle>
    <vehicle id="90" depart="4.77" departLane="best" departPos="random_free" departSpeed="max">
        <route edges="22 25 27 29 44 60 61 32 31 33"/>
    </vehicle>
    <vehicle id="91" depart="4.83" departLane="best" departPos="random_free" departSpeed="max">
        <route edges="75 79 70 33"/>
    </vehicle>
    <vehicle id="92" depart="4.88" departLane="best" departPos="random_free" departSpeed="max">
        <route edges="56 55 57 71 73 75 79 70 33"/>
    </vehicle>
    <vehicle id="93" depart="4.93" departLane="best" departPos="random_free" departSpeed="max">
        <route edges="65 61 32 31 33"/>
    </vehicle>
    <vehicle id="94" depart="4.99" departLane="best" departPos="random_free" departSpeed="max">
        <route edges="55 57 71 73 75 79 70 33"/>
    </vehicle>
    <vehicle id="95" depart="5.04" departLane="best" departPos="random_free" departSpeed="max">
        <route edges="35 37 43 49 21 18 23 25 27 29 44 60 61 32 31 33"/>
    </vehicle>
    <vehicle id="96" depart="5.09" departLane="best" departPos="random_free" departSpeed="max">
        <route edges="13 11 9 7 2 1 3 51 79 70 33"/>
    </vehicle>
    <vehicle id="97" depart="5.15" departLane="best" departPos="random_free" departSpeed="max">
        <route edges="74 73 75 79 70 33"/>
    </vehicle>
    <vehicle id="98" depart="5.20" departLane="best" departPos="random_free" departSpeed="max">
        <route edges="80 28 26 24 19 17 13 11 9 7 2 1 3 51 79 70 33"/>
    </vehicle>
    <vehicle id="99" depart="5.25" departLane="best" departPos="random_free" departSpeed="max">
        <route edges="9 7 2 1 3 51 79 70 33"/>
    </vehicle>
    <vehicle id="100" depart="5.30" departLane="best" departPos="random_free" departSpeed="max">
        <route edges="57 71 73 75 79 70 33"/>
    </vehicle>
    <vehicle id="101" depart="5.36" departLane="best" departPos="random_free" departSpeed="max">
        <route edges="77 80 28 26 24 19 17 13 11 9 7 2 1 3 51 79 70 33"/>
    </vehicle>
    <vehicle id="102" depart="5.41" departLane="best" departPos="random_free" departSpeed="max">
        <route edges="22 25 27 29 44 60 61 32 31 33"/>
    </vehicle>
    <vehicle id="103" depart="5.46" departLane="best" departPos="random_free" departSpeed="max">
        <route edges="28 26 24 19 17 13 11 9 7 2 1 3 51 79 70 33"/>
    </vehicle>
    <vehicle id="104" depart="5.52" departLane="best" departPos="random_free" departSpeed="max">
        <route edges="50 64 57 71 73 75 79 70 33"/>
    </vehicle>
    <vehicle id="105" depart="5.57" departLane="best" departPos="random_free" departSpeed="max">
        <route edges="31 33"/>
    </vehicle>
    <vehicle id="106" depart="5.62" departLane="best" departPos="random_free" departSpeed="max">
        <route edges="27 29 44 60 61 32 31 33"/>
    </vehicle>
    <vehicle id="107" depart="5.68" departLane="best" departPos="random_free" departSpeed="max">
        <route edges="5 4 6 8 10 12 16 18 23 25 27 29 44 60 61 32 31 33"/>
    </vehicle>
    <vehicle id="108" depart="5.73" departLane="best" departPos="random_free" departSpeed="max">
        <route edges="67 54 53 28 26 24 19 17 13 11 9 7 2 1 3 51 79 70 33"/>
    </vehicle>
    <vehicle id="109" depart="5.78" departLane="best" departPos="random_free" departSpeed="max">
        <route edges="18 23 25 27 29 44 60 61 32 31 33"/>
    </vehicle>
    <vehicle id="110" depart="5.84" departLane="best" departPos="random_free" departSpeed="max">
        <route edges="11 9 7 2 1 3 51 79 70 33"/>
    </vehicle>
    <vehicle id="111" depart="5.89" departLane="best" departPos="random_free" departSpeed="max">
        <route edges="80 28 26 24 19 17 13 11 9 7 2 1 3 51 79 70 33"/>
    </vehicle>
    <vehicle id="112" depart="5.94" departLane="best" departPos="random_free" departSpeed="max">
        <route edges="9 7 2 1 3 51 79 70 33"/>
    </vehicle>
    <vehicle id="113" depart="5.99" departLane="best" departPos="random_free" departSpeed="max">
        <route edges="4 6 8 10 12 16 18 23 25 27 29 44 60 61 32 31 33"/>
    </vehicle>
    <vehicle id="114" depart="6.05" departLane="best" departPos="random_free" departSpeed="max">
        <route edges="13 11 9 7 2 1 3 51 79 70 33"/>
    </vehicle>
    <vehicle id="115" depart="6.10" departLane="best" departPos="random_free" departSpeed="max">
        <route edges="29 44 60 61 32 31 33"/>
    </vehicle>
    <vehicle id="116" depart="6.15" departLane="best" departPos="random_free" departSpeed="max">
        <route edges="74 73 75 79 70 33"/>
    </vehicle>
    <vehicle id="117" depart="6.21" departLane="best" departPos="random_free" departSpeed="max">
        <route edges="44 60 61 32 31 33"/>
    </vehicle>
    <vehicle id="118" depart="6.26" departLane="best" departPos="random_free" departSpeed="max">
        <route edges="66 65 61 32 31 33"/>
    </vehicle>
    <vehicle id="119" depart="6.31" departLane="best" departPos="random_free" departSpeed="max">
        <route edges="30 5 4 6 8 10 12 16 18 23 25 27 29 44 60 61 32 31 33"/>
    </vehicle>
    <vehicle id="120" depart="6.37" departLane="best" departPos="random_free" departSpeed="max">
        <route edges="2 1 3 51 79 70 33"/>
    </vehicle>
    <vehicle id="121" depart="6.42" departLane="best" departPos="random_free" departSpeed="max">
        <route edges="76 69 61 32 31 33"/>
    </vehicle>
    <vehicle id="122" depart="6.47" departLane="best" departPos="random_free" departSpeed="max">
        <route edges="19 17 13 11 9 7 2 1 3 51 79 70 33"/>
    </vehicle>
    <vehicle id="123" depart="6.53" departLane="best" departPos="random_free" departSpeed="max">
        <route edges="52 72 63 51 79 70 33"/>
    </vehicle>
    <vehicle id="124" depart="6.58" departLane="best" departPos="random_free" departSpeed="max">
        <route edges="77 80 28 26 24 19 17 13 11 9 7 2 1 3 51 79 70 33"/>
    </vehicle>
    <vehicle id="125" depart="6.63" departLane="best" departPos="random_free" departSpeed="max">
        <route edges="2 1 3 51 79 70 33"/>
    </vehicle>
    <vehicle id="126" depart="6.68" departLane="best" departPos="random_free" departSpeed="max">
        <route edges="44 60 61 32 31 33"/>
    </vehicle>
    <vehicle id="127" depart="6.74" departLane="best" departPos="random_free" departSpeed="max">
        <route edges="69 61 32 31 33"/>
    </vehicle>
    <vehicle id="128" depart="6.79" departLane="best" departPos="random_free" departSpeed="max">
        <route edges="58 75 79 70 33"/>
    </vehicle>
    <vehicle id="129" depart="6.84" departLane="best" departPos="random_free" departSpeed="max">
        <route edges="46 66 65 61 32 31 33"/>
    </vehicle>
    <vehicle id="130" depart="6.90" departLane="best" departPos="random_free" departSpeed="max">
        <route edges="40 52 72 63 51 79 70 33"/>
    </vehicle>
    <vehicle id="131" depart="6.95" departLane="best" departPos="random_free" departSpeed="max">
        <route edges="75 79 70 33"/>
    </vehicle>
    <vehicle id="132" depart="7.00" departLane="best" departPos="random_free" departSpeed="max">
        <route edges="56 55 57 71 73 75 79 70 33"/>
    </vehicle>
    <vehicle id="133" depart="7.06" departLane="best" departPos="random_free" departSpeed="max">
        <route edges="50 64 57 71 73 75 79 70 33"/>
    </vehicle>
    <vehicle id="134" depart="7.11" departLane="best" departPos="random_free" departSpeed="max">
        <route edges="24 19 17 13 11 9 7 2 1 3 51 79 70 33"/>
    </vehicle>
    <vehicle id="135" depart="7.16" departLane="best" departPos="random_free" departSpeed="max">
        <route edges="31 33"/>
    </vehicle>
    <vehicle id="136" depart="7.21" departLane="best" departPos="random_free" departSpeed="max">
        <route edges="57 71 73 75 79 70 33"/>
    </vehicle>
    <vehicle id="137" depart="7.27" departLane="best" departPos="random_free" departSpeed="max">
        <route edges="43 49 21 18 23 25 27 29 44 60 61 32 31 33"/>
    </vehicle>
    <vehicle id="138" depart="7.32" departLane="best" departPos="random_free" departSpeed="max">
        <route edges="40 52 72 63 51 79 70 33"/>
    </vehicle>
    <vehicle id="139" depart="7.37" departLane="best" departPos="random_free" departSpeed="max">
        <route edges="29 44 60 61 32 31 33"/>
    </vehicle>
    <vehicle id="140" depart="7.43" departLane="best" departPos="random_free" departSpeed="max">
        <route edges="19 17 13 11 9 7 2 1 3 51 79 70 33"/>
    </vehicle>
    <vehicle id="141" depart="7.48" departLane="best" departPos="random_free" departSpeed="max">
        <route edges="54 53 28 26 24 19 17 13 11 9 7 2 1 3 51 79 70 33"/>
    </vehicle>
    <vehicle id="142" depart="7.53" departLane="best" departPos="random_free" departSpeed="max">
        <route edges="65 61 32 31 33"/>
    </vehicle>
    <vehicle id="143" depart="7.59" departLane="best" departPos="random_free" departSpeed="max">
        <route edges="32 31 33"/>
    </vehicle>
    <vehicle id="144" depart="7.64" departLane="best" departPos="random_free" departSpeed="max">
        <route edges="20 47 48 39 38 40 52 72 63 51 79 70 33"/>
    </vehicle>
    <vehicle id="145" depart="7.69" departLane="best" departPos="random_free" departSpeed="max">
        <route edges="23 25 27 29 44 60 61 32 31 33"/>
    </vehicle>
    <vehicle id="146" depart="7.75" departLane="best" departPos="random_free" departSpeed="max">
        <route edges="9 7 2 1 3 51 79 70 33"/>
    </vehicle>
    <vehicle id="147" depart="7.80" departLane="best" departPos="random_free" departSpeed="max">
        <route edges="6 8 10 12 16 18 23 25 27 29 44 60 61 32 31 33"/>
    </vehicle>
    <vehicle id="148" depart="7.85" departLane="best" departPos="random_free" departSpeed="max">
        <route edges="18 23 25 27 29 44 60 61 32 31 33"/>
    </vehicle>
    <vehicle id="149" depart="7.90" departLane="best" departPos="random_free" departSpeed="max">
        <route edges="54 53 28 26 24 19 17 13 11 9 7 2 1 3 51 79 70 33"/>
    </vehicle>
    <vehicle id="150" depart="7.96" departLane="best" departPos="random_free" departSpeed="max">
        <route edges="74 73 75 79 70 33"/>
    </vehicle>
    <vehicle id="151" depart="8.01" departLane="best" departPos="random_free" departSpeed="max">
        <route edges="50 64 57 71 73 75 79 70 33"/>
    </vehicle>
    <vehicle id="152" depart="8.06" departLane="best" departPos="random_free" departSpeed="max">
        <route edges="37 43 49 21 18 23 25 27 29 44 60 61 32 31 33"/>
    </vehicle>
    <vehicle id="153" depart="8.12" departLane="best" departPos="random_free" departSpeed="max">
        <route edges="24 19 17 13 11 9 7 2 1 3 51 79 70 33"/>
    </vehicle>
    <vehicle id="154" depart="8.17" departLane="best" departPos="random_free" departSpeed="max">
        <route edges="3 51 79 70 33"/>
    </vehicle>
    <vehicle id="155" depart="8.22" departLane="best" departPos="random_free" departSpeed="max">
        <route edges="17 13 11 9 7 2 1 3 51 79 70 33"/>
    </vehicle>
    <vehicle id="156" depart="8.28" departLane="best" departPos="random_free" departSpeed="max">
        <route edges="7 2 1 3 51 79 70 33"/>
    </vehicle>
    <vehicle id="157" depart="8.33" departLane="best" departPos="random_free" departSpeed="max">
        <route edges="5 4 6 8 10 12 16 18 23 25 27 29 44 60 61 32 31 33"/>
    </vehicle>
    <vehicle id="158" depart="8.38" departLane="best" departPos="random_free" departSpeed="max">
        <route edges="30 5 4 6 8 10 12 16 18 23 25 27 29 44 60 61 32 31 33"/>
    </vehicle>
    <vehicle id="159" depart="8.43" departLane="best" departPos="random_free" departSpeed="max">