<?xml version="1.0" encoding="UTF-8"?>

<!-- generated on 2024-10-17 14:56:51.674775 by randomTrips.py UNKNOWN
<configuration>
    <net-file value="/home/mangaldeep/workspace/carla/tegel_maps/SU_tegel_map_10_10_24.net.xml"/>
    <additional-files value="/home/mangaldeep/workspace/carla/tegel_maps/SU_tegel_map_10_10_24.add.xml"/>
    <output-trip-file value="/home/mangaldeep/workspace/carla/tegel_maps/SU_tegel_map_10_10_24.vehicles.trips.xml"/>
    <route-file value="/home/mangaldeep/workspace/carla/tegel_maps/SU_tegel_map_10_10_24.vehicles.rou.xml"/>
    <trip-attributes value="departLane=&quot;best&quot; departSpeed=&quot;max&quot; departPos=&quot;random_free&quot;"/>
    <fringe-factor value="2147483646"/>
    <seed value="1234"/>
    <validate value="True"/>
    <end value="30.0"/>
    <period value="0.05304983501501308"/>
</configuration>
-->

<!-- generated on 2024-10-17 14:56:51 by Eclipse SUMO duarouter Version 1.21.0
<duarouterConfiguration xmlns:xsi="http://www.w3.org/2001/XMLSchema-instance" xsi:noNamespaceSchemaLocation="http://sumo.dlr.de/xsd/duarouterConfiguration.xsd">

    <input>
        <net-file value="/home/mangaldeep/workspace/carla/tegel_maps/SU_tegel_map_10_10_24.net.xml"/>
        <additional-files value="/home/mangaldeep/workspace/carla/tegel_maps/SU_tegel_map_10_10_24.add.xml"/>
        <route-files value="/home/mangaldeep/workspace/carla/tegel_maps/SU_tegel_map_10_10_24.vehicles.trips.xml"/>
    </input>

    <output>
        <output-file value="/home/mangaldeep/workspace/carla/tegel_maps/SU_tegel_map_10_10_24.vehicles.trips.xml.tmp"/>
        <alternatives-output value="NUL"/>
        <write-trips value="true"/>
    </output>

    <time>
        <begin value="0.0"/>
        <end value="30.0"/>
    </time>

    <report>
        <no-warnings value="true"/>
        <ignore-errors value="true"/>
        <no-step-log value="true"/>
    </report>

</duarouterConfiguration>
-->

<routes xmlns:xsi="http://www.w3.org/2001/XMLSchema-instance" xsi:noNamespaceSchemaLocation="http://sumo.dlr.de/xsd/routes_file.xsd">
    <vType id="truck" length="7.50" minGap="2.50" maxSpeed="36.11" probability="0.80" speedFactor="normc(0.94,0.20,0.20,2.00)" vClass="truck" impatience="0.04" guiShape="truck" width="2.60" lcStrategic="91.35" lcCooperative="1.40" lcSpeedGain="18.16" lcKeepRight="0.87" lcImpatience="0.45" lcMaxSpeedLatStanding="0.00" lcSigma="0.20" accel="1.07" decel="3.11" sigma="0.51"/>
    <trip id="0" depart="0.00" departLane="best" departPos="random_free" departSpeed="max" from="8" to="33"/>
    <vType id="passenger" length="5.00" minGap="2.50" maxSpeed="50.00" probability="4.00" speedFactor="normc(0.99,0.15,0.20,2.00)" vClass="passenger" impatience="0.34" guiShape="passenger" width="2.00" lcStrategic="87.86" lcCooperative="1.23" lcSpeedGain="14.21" lcKeepRight="0.87" lcImpatience="0.16" lcMaxSpeedLatStanding="0.00" lcSigma="0.16" accel="2.42" decel="5.62" sigma="0.51"/>
    <trip id="1" depart="0.05" departLane="best" departPos="random_free" departSpeed="max" from="1" to="33"/>
    <trip id="2" depart="0.11" departLane="best" departPos="random_free" departSpeed="max" from="76" to="33"/>
    <trip id="3" depart="0.16" departLane="best" departPos="random_free" departSpeed="max" from="56" to="33"/>
    <trip id="4" depart="0.21" departLane="best" departPos="random_free" departSpeed="max" from="62" to="33"/>
    <trip id="5" depart="0.27" departLane="best" departPos="random_free" departSpeed="max" from="11" to="33"/>
    <trip id="6" depart="0.32" departLane="best" departPos="random_free" departSpeed="max" from="31" to="33"/>
    <trip id="7" depart="0.37" departLane="best" departPos="random_free" departSpeed="max" from="52" to="33"/>
    <trip id="8" depart="0.42" departLane="best" departPos="random_free" departSpeed="max" from="21" to="33"/>
    <trip id="9" depart="0.48" departLane="best" departPos="random_free" departSpeed="max" from="10" to="33"/>
    <trip id="10" depart="0.53" departLane="best" departPos="random_free" departSpeed="max" from="8" to="33"/>
    <trip id="11" depart="0.58" departLane="best" departPos="random_free" departSpeed="max" from="46" to="33"/>
    <trip id="12" depart="0.64" departLane="best" departPos="random_free" departSpeed="max" from="50" to="33"/>
    <trip id="13" depart="0.69" departLane="best" departPos="random_free" departSpeed="max" from="49" to="33"/>
    <trip id="14" depart="0.74" departLane="best" departPos="random_free" departSpeed="max" from="48" to="33"/>
    <trip id="15" depart="0.80" departLane="best" departPos="random_free" departSpeed="max" from="42" to="33"/>
    <trip id="16" depart="0.85" departLane="best" departPos="random_free" departSpeed="max" from="25" to="33"/>
    <trip id="17" depart="0.90" departLane="best" departPos="random_free" departSpeed="max" from="40" to="33"/>
    <trip id="18" depart="0.95" departLane="best" departPos="random_free" departSpeed="max" from="10" to="33"/>
    <trip id="19" depart="1.01" departLane="best" departPos="random_free" departSpeed="max" from="1" to="33"/>
    <trip id="20" depart="1.06" departLane="best" departPos="random_free" departSpeed="max" from="42" to="33"/>
    <trip id="21" depart="1.11" departLane="best" departPos="random_free" departSpeed="max" from="12" to="33"/>
    <trip id="22" depart="1.17" departLane="best" departPos="random_free" departSpeed="max" from="2" to="33"/>
    <trip id="23" depart="1.22" departLane="best" departPos="random_free" departSpeed="max" from="19" to="33"/>
    <vType id="bus" length="12.40" minGap="2.50" maxSpeed="23.61" probability="0.30" speedFactor="normc(1.00,0.17,0.20,2.00)" vClass="bus" impatience="0.11" guiShape="bus" width="2.70" lcStrategic="91.20" lcCooperative="2.67" lcSpeedGain="9.88" lcKeepRight="0.80" lcImpatience="0.23" lcMaxSpeedLatStanding="0.00" lcSigma="0.16" accel="1.19" decel="3.52" sigma="0.54"/>
    <trip id="24" depart="1.27" departLane="best" departPos="random_free" departSpeed="max" from="62" to="33"/>
    <trip id="25" depart="1.33" departLane="best" departPos="random_free" departSpeed="max" from="19" to="33"/>
    <trip id="26" depart="1.38" departLane="best" departPos="random_free" departSpeed="max" from="11" to="33"/>
    <trip id="27" depart="1.43" departLane="best" departPos="random_free" departSpeed="max" from="66" to="33"/>
    <trip id="28" depart="1.49" departLane="best" departPos="random_free" departSpeed="max" from="2" to="33"/>
    <trip id="29" depart="1.54" departLane="best" departPos="random_free" departSpeed="max" from="2" to="33"/>
    <trip id="30" depart="1.59" departLane="best" departPos="random_free" departSpeed="max" from="11" to="33"/>
    <trip id="31" depart="1.64" departLane="best" departPos="random_free" departSpeed="max" from="32" to="33"/>
    <trip id="32" depart="1.70" departLane="best" departPos="random_free" departSpeed="max" from="66" to="33"/>
    <trip id="33" depart="1.75" departLane="best" departPos="random_free" departSpeed="max" from="64" to="33"/>
    <trip id="34" depart="1.80" departLane="best" departPos="random_free" departSpeed="max" from="66" to="33"/>
    <trip id="35" depart="1.86" departLane="best" departPos="random_free" departSpeed="max" from="4" to="33"/>
    <trip id="36" depart="1.91" departLane="best" departPos="random_free" departSpeed="max" from="66" to="33"/>
    <trip id="37" depart="1.96" departLane="best" departPos="random_free" departSpeed="max" from="17" to="33"/>
    <trip id="38" depart="2.02" departLane="best" departPos="random_free" departSpeed="max" from="4" to="33"/>
    <trip id="39" depart="2.07" departLane="best" departPos="random_free" departSpeed="max" from="46" to="33"/>
    <trip id="40" depart="2.12" departLane="best" departPos="random_free" departSpeed="max" from="42" to="33"/>
    <vType id="bicycle" length="2.00" minGap="1.00" maxSpeed="6.94" probability="0.20" speedFactor="normc(1.04,0.16,0.20,2.00)" vClass="bicycle" impatience="0.04" guiShape="bicycle" width="0.68" lcStrategic="99.00" lcCooperative="2.70" lcSpeedGain="8.46" lcKeepRight="0.89" lcImpatience="0.31" lcMaxSpeedLatStanding="0.00" lcSigma="0.15" accel="1.02" decel="2.63" sigma="0.51"/>
    <trip id="41" depart="2.18" departLane="best" departPos="random_free" departSpeed="max" from="55" to="33"/>
    <trip id="42" depart="2.23" departLane="best" departPos="random_free" departSpeed="max" from="31" to="33"/>
    <trip id="43" depart="2.28" departLane="best" departPos="random_free" departSpeed="max" from="66" to="33"/>
    <trip id="44" depart="2.33" departLane="best" departPos="random_free" departSpeed="max" from="74" to="33"/>
    <trip id="45" depart="2.39" departLane="best" departPos="random_free" departSpeed="max" from="2" to="33"/>
    <trip id="46" depart="2.44" departLane="best" departPos="random_free" departSpeed="max" from="59" to="33"/>
    <trip id="47" depart="2.49" departLane="best" departPos="random_free" departSpeed="max" from="40" to="33"/>
    <trip id="48" depart="2.55" departLane="best" departPos="random_free" departSpeed="max" from="37" to="33"/>
    <trip id="49" depart="2.60" departLane="best" departPos="random_free" departSpeed="max" from="28" to="33"/>
    <trip id="50" depart="2.65" departLane="best" departPos="random_free" departSpeed="max" from="44" to="33"/>
    <trip id="51" depart="2.71" departLane="best" departPos="random_free" departSpeed="max" from="76" to="33"/>
    <trip id="52" depart="2.76" departLane="best" departPos="random_free" departSpeed="max" from="3" to="33"/>
    <trip id="53" depart="2.81" departLane="best" departPos="random_free" departSpeed="max" from="13" to="33"/>
    <trip id="54" depart="2.86" departLane="best" departPos="random_free" departSpeed="max" from="14" to="33"/>
    <trip id="55" depart="2.92" departLane="best" departPos="random_free" departSpeed="max" from="22" to="33"/>
    <trip id="56" depart="2.97" departLane="best" departPos="random_free" departSpeed="max" from="58" to="33"/>
    <trip id="57" depart="3.02" departLane="best" departPos="random_free" departSpeed="max" from="44" to="33"/>
    <trip id="58" depart="3.08" departLane="best" departPos="random_free" departSpeed="max" from="35" to="33"/>
    <trip id="59" depart="3.13" departLane="best" departPos="random_free" departSpeed="max" from="45" to="33"/>
    <trip id="60" depart="3.18" departLane="best" departPos="random_free" departSpeed="max" from="20" to="33"/>
    <trip id="61" depart="3.24" departLane="best" departPos="random_free" departSpeed="max" from="29" to="33"/>
    <trip id="62" depart="3.29" departLane="best" departPos="random_free" departSpeed="max" from="46" to="33"/>
    <trip id="63" depart="3.34" departLane="best" departPos="random_free" departSpeed="max" from="62" to="33"/>
    <trip id="64" depart="3.40" departLane="best" departPos="random_free" departSpeed="max" from="31" to="33"/>
    <trip id="65" depart="3.45" departLane="best" departPos="random_free" departSpeed="max" from="52" to="33"/>
    <trip id="66" depart="3.50" departLane="best" departPos="random_free" departSpeed="max" from="68" to="33"/>
    <trip id="67" depart="3.55" departLane="best" departPos="random_free" departSpeed="max" from="30" to="33"/>
    <trip id="68" depart="3.61" departLane="best" departPos="random_free" departSpeed="max" from="56" to="33"/>
    <trip id="69" depart="3.66" departLane="best" departPos="random_free" departSpeed="max" from="61" to="33"/>
    <trip id="70" depart="3.71" departLane="best" departPos="random_free" departSpeed="max" from="23" to="33"/>
    <trip id="71" depart="3.77" departLane="best" departPos="random_free" departSpeed="max" from="60" to="33"/>
    <trip id="72" depart="3.82" departLane="best" departPos="random_free" departSpeed="max" from="67" to="33"/>
    <trip id="73" depart="3.87" departLane="best" departPos="random_free" departSpeed="max" from="7" to="33"/>
    <trip id="74" depart="3.93" departLane="best" departPos="random_free" departSpeed="max" from="46" to="33"/>
    <trip id="75" depart="3.98" departLane="best" departPos="random_free" departSpeed="max" from="39" to="33"/>
    <trip id="76" depart="4.03" departLane="best" departPos="random_free" departSpeed="max" from="68" to="33"/>
    <trip id="77" depart="4.08" departLane="best" departPos="random_free" departSpeed="max" from="15" to="33"/>
    <trip id="78" depart="4.14" departLane="best" departPos="random_free" departSpeed="max" from="38" to="33"/>
    <trip id="79" depart="4.19" departLane="best" departPos="random_free" departSpeed="max" from="27" to="33"/>
    <trip id="80" depart="4.24" departLane="best" departPos="random_free" departSpeed="max" from="36" to="33"/>
    <trip id="81" depart="4.30" departLane="best" departPos="random_free" departSpeed="max" from="59" to="33"/>
    <trip id="82" depart="4.35" departLane="best" departPos="random_free" departSpeed="max" from="12" to="33"/>
    <trip id="83" depart="4.40" departLane="best" departPos="random_free" departSpeed="max" from="4" to="33"/>
    <trip id="84" depart="4.46" departLane="best" departPos="random_free" departSpeed="max" from="2" to="33"/>
    <trip id="85" depart="4.51" departLane="best" departPos="random_free" departSpeed="max" from="14" to="33"/>
    <trip id="86" depart="4.56" departLane="best" departPos="random_free" departSpeed="max" from="39" to="33"/>
    <trip id="87" depart="4.62" departLane="best" departPos="random_free" departSpeed="max" from="42" to="33"/>
    <trip id="88" depart="4.67" departLane="best" departPos="random_free" departSpeed="max" from="42" to="33"/>
    <trip id="89" depart="4.72" departLane="best" departPos="random_free" departSpeed="max" from="35" to="33"/>
    <trip id="90" depart="4.77" departLane="best" departPos="random_free" departSpeed="max" from="22" to="33"/>
    <trip id="91" depart="4.83" departLane="best" departPos="random_free" departSpeed="max" from="75" to="33"/>
    <trip id="92" depart="4.88" departLane="best" departPos="random_free" departSpeed="max" from="56" to="33"/>
    <trip id="93" depart="4.93" departLane="best" departPos="random_free" departSpeed="max" from="65" to="33"/>
    <trip id="94" depart="4.99" departLane="best" departPos="random_free" departSpeed="max" from="55" to="33"/>
    <trip id="95" depart="5.04" departLane="best" departPos="random_free" departSpeed="max" from="35" to="33"/>
    <trip id="96" depart="5.09" departLane="best" departPos="random_free" departSpeed="max" from="13" to="33"/>
    <trip id="97" depart="5.15" departLane="best" departPos="random_free" departSpeed="max" from="74" to="33"/>
    <trip id="98" depart="5.20" departLane="best" departPos="random_free" departSpeed="max" from="80" to="33"/>
    <trip id="99" depart="5.25" departLane="best" departPos="random_free" departSpeed="max" from="9" to="33"/>
    <trip id="100" depart="5.30" departLane="best" departPos="random_free" departSpeed="max" from="57" to="33"/>
    <trip id="101" depart="5.36" departLane="best" departPos="random_free" departSpeed="max" from="77" to="33"/>
    <trip id="102" depart="5.41" departLane="best" departPos="random_free" departSpeed="max" from="22" to="33"/>
    <trip id="103" depart="5.46" departLane="best" departPos="random_free" departSpeed="max" from="28" to="33"/>
    <trip id="104" depart="5.52" departLane="best" departPos="random_free" departSpeed="max" from="50" to="33"/>
    <trip id="105" depart="5.57" departLane="best" departPos="random_free" departSpeed="max" from="31" to="33"/>
    <trip id="106" depart="5.62" departLane="best" departPos="random_free" departSpeed="max" from="27" to="33"/>
    <trip id="107" depart="5.68" departLane="best" departPos="random_free" departSpeed="max" from="5" to="33"/>
    <trip id="108" depart="5.73" departLane="best" departPos="random_free" departSpeed="max" from="67" to="33"/>
    <trip id="109" depart="5.78" departLane="best" departPos="random_free" departSpeed="max" from="18" to="33"/>
    <trip id="110" depart="5.84" departLane="best" departPos="random_free" departSpeed="max" from="11" to="33"/>
    <trip id="111" depart="5.89" departLane="best" departPos="random_free" departSpeed="max" from="80" to="33"/>
    <trip id="112" depart="5.94" departLane="best" departPos="random_free" departSpeed="max" from="9" to="33"/>
    <trip id="113" depart="5.99" departLane="best" departPos="random_free" departSpeed="max" from="4" to="33"/>
    <trip id="114" depart="6.05" departLane="best" departPos="random_free" departSpeed="max" from="13" to="33"/>
    <trip id="115" depart="6.10" departLane="best" departPos="random_free" departSpeed="max" from="29" to="33"/>
    <trip id="116" depart="6.15" departLane="best" departPos="random_free" departSpeed="max" from="74" to="33"/>
    <trip id="117" depart="6.21" departLane="best" departPos="random_free" departSpeed="max" from="44" to="33"/>
    <trip id="118" depart="6.26" departLane="best" departPos="random_free" departSpeed="max" from="66" to="33"/>
    <trip id="119" depart="6.31" departLane="best" departPos="random_free" departSpeed="max" from="30" to="33"/>
    <trip id="120" depart="6.37" departLane="best" departPos="random_free" departSpeed="max" from="2" to="33"/>
    <trip id="121" depart="6.42" departLane="best" departPos="random_free" departSpeed="max" from="76" to="33"/>
    <trip id="122" depart="6.47" departLane="best" departPos="random_free" departSpeed="max" from="19" to="33"/>
    <trip id="123" depart="6.53" departLane="best" departPos="random_free" departSpeed="max" from="52" to="33"/>
    <trip id="124" depart="6.58" departLane="best" departPos="random_free" departSpeed="max" from="77" to="33"/>
    <trip id="125" depart="6.63" departLane="best" departPos="random_free" departSpeed="max" from="2" to="33"/>
    <trip id="126" depart="6.68" departLane="best" departPos="random_free" departSpeed="max" from="44" to="33"/>
    <trip id="127" depart="6.74" departLane="best" departPos="random_free" departSpeed="max" from="69" to="33"/>
    <trip id="128" depart="6.79" departLane="best" departPos="random_free" departSpeed="max" from="58" to="33"/>
    <trip id="129" depart="6.84" departLane="best" departPos="random_free" departSpeed="max" from="46" to="33"/>
    <trip id="130" depart="6.90" departLane="best" departPos="random_free" departSpeed="max" from="40" to="33"/>
    <trip id="131" depart="6.95" departLane="best" departPos="random_free" departSpeed="max" from="75" to="33"/>
    <trip id="132" depart="7.00" departLane="best" departPos="random_free" departSpeed="max" from="56" to="33"/>
    <trip id="133" depart="7.06" departLane="best" departPos="random_free" departSpeed="max" from="50" to="33"/>
    <trip id="134" depart="7.11" departLane="best" departPos="random_free" departSpeed="max" from="24" to="33"/>
    <trip id="135" depart="7.16" departLane="best" departPos="random_free" departSpeed="max" from="31" to="33"/>
    <trip id="136" depart="7.21" departLane="best" departPos="random_free" departSpeed="max" from="57" to="33"/>
    <trip id="137" depart="7.27" departLane="best" departPos="random_free" departSpeed="max" from="43" to="33"/>
    <trip id="138" depart="7.32" departLane="best" departPos="random_free" departSpeed="max" from="40" to="33"/>
    <trip id="139" depart="7.37" departLane="best" departPos="random_free" departSpeed="max" from="29" to="33"/>
    <trip id="140" depart="7.43" departLane="best" departPos="random_free" departSpeed="max" from="19" to="33"/>
    <trip id="141" depart="7.48" departLane="best" departPos="random_free" departSpeed="max" from="54" to="33"/>
    <trip id="142" depart="7.53" departLane="best" departPos="random_free" departSpeed="max" from="65" to="33"/>
    <trip id="143" depart="7.59" departLane="best" departPos="random_free" departSpeed="max" from="32" to="33"/>
    <trip id="144" depart="7.64" departLane="best" departPos="random_free" departSpeed="max" from="20" to="33"/>
    <trip id="145" depart="7.69" departLane="best" departPos="random_free" departSpeed="max" from="23" to="33"/>
    <trip id="146" depart="7.75" departLane="best" departPos="random_free" departSpeed="max" from="9" to="33"/>
    <trip id="147" depart="7.80" departLane="best" departPos="random_free" departSpeed="max" from="6" to="33"/>
    <trip id="148" depart="7.85" departLane="best" departPos="random_free" departSpeed="max" from="18" to="33"/>
    <trip id="149" depart="7.90" departLane="best" departPos="random_free" departSpeed="max" from="54" to="33"/>
    <trip id="150" depart="7.96" departLane="best" departPos="random_free" departSpeed="max" from="74" to="33"/>
    <trip id="151" depart="8.01" departLane="best" departPos="random_free" departSpeed="max" from="50" to="33"/>
    <trip id="152" depart="8.06" departLane="best" departPos="random_free" departSpeed="max" from="37" to="33"/>
    <trip id="153" depart="8.12" departLane="best" departPos="random_free" departSpeed="max" from="24" to="33"/>
    <trip id="154" depart="8.17" departLane="best" departPos="random_free" departSpeed="max" from="3" to="33"/>
    <trip id="155" depart="8.22" departLane="best" departPos="random_free" departSpeed="max" from="17" to="33"/>
    <trip id="156" depart="8.28" departLane="best" departPos="random_free" departSpeed="max" from="7" to="33"/>
    <trip id="157" depart="8.33" departLane="best" departPos="random_free" departSpeed="max" from="5" to="33"/>
    <trip id="158" depart="8.38" departLane="best" departPos="random_free" departSpeed="max" from="30" to="33"/>
    <trip id="159" depart="8.43" departLane="best" departPos="random_free" departSpeed="max" from="75" to="33"/>
    <trip id="160" depart="8.49" departLane="best" departPos="random_free" departSpeed="max" from="54" to="33"/>
    <trip id="161" depart="8.54" departLane="best" departPos="random_free" departSpeed="max" from="74" to="33"/>
    <trip id="162" depart="8.59" departLane="best" departPos="random_free" departSpeed="max" from="8" to="33"/>
    <trip id="163" depart="8.65" departLane="best" departPos="random_free" departSpeed="max" from="38" to="33"/>
    <trip id="164" depart="8.70" departLane="best" departPos="random_free" departSpeed="max" from="27" to="33"/>
    <trip id="165" depart="8.75" departLane="best" departPos="random_free" departSpeed="max" from="20" to="33"/>
    <trip id="166" depart="8.81" departLane="best" departPos="random_free" departSpeed="max" from="5" to="33"/>
    <trip id="167" depart="8.86" departLane="best" departPos="random_free" departSpeed="max" from="46" to="33"/>
    <trip id="168" depart="8.91" departLane="best" departPos="random_free" departSpeed="max" from="5" to="33"/>
    <trip id="169" depart="8.97" departLane="best" departPos="random_free" departSpeed="max" from="45" to="33"/>
    <trip id="170" depart="9.02" departLane="best" departPos="random_free" departSpeed="max" from="65" to="33"/>
    <trip id="171" depart="9.07" departLane="best" departPos="random_free" departSpeed="max" from="16" to="33"/>
    <trip id="172" depart="9.12" departLane="best" departPos="random_free" departSpeed="max" from="69" to="33"/>
    <trip id="173" depart="9.18" departLane="best" departPos="random_free" departSpeed="max" from="18" to="33"/>
    <trip id="174" depart="9.23" departLane="best" departPos="random_free" departSpeed="max" from="43" to="33"/>
    <trip id="175" depart="9.28" departLane="best" departPos="random_free" departSpeed="max" from="18" to="33"/>
    <trip id="176" depart="9.34" departLane="best" departPos="random_free" departSpeed="max" from="25" to="33"/>
    <trip id="177" depart="9.39" departLane="best" departPos="random_free" departSpeed="max" from="31" to="33"/>
    <trip id="178" depart="9.44" departLane="best" departPos="random_free" departSpeed="max" from="59" to="33"/>
    <trip id="179" depart="9.50" departLane="best" departPos="random_free" departSpeed="max" from="47" to="33"/>
    <trip id="180" depart="9.55" departLane="best" departPos="random_free" departSpeed="max" from="42" to="33"/>
    <trip id="181" depart="9.60" departLane="best" departPos="random_free" departSpeed="max" from="75" to="33"/>
    <trip id="182" depart="9.66" departLane="best" departPos="random_free" departSpeed="max" from="4" to="33"/>
    <trip id="183" depart="9.71" departLane="best" departPos="random_free" departSpeed="max" from="46" to="33"/>
    <trip id="184" depart="9.76" departLane="best" departPos="random_free" departSpeed="max" from="15" to="33"/>
    <trip id="185" depart="9.81" departLane="best" departPos="random_free" departSpeed="max" from="50" to="33"/>
    <trip id="186" depart="9.87" departLane="best" departPos="random_free" departSpeed="max" from="36" to="33"/>
    <trip id="187" depart="9.92" departLane="best" departPos="random_free" departSpeed="max" from="22" to="33"/>
    <trip id="188" depart="9.97" departLane="best" departPos="random_free" departSpeed="max" from="8" to="33"/>
    <trip id="189" depart="10.03" departLane="best" departPos="random_free" departSpeed="max" from="16" to="33"/>
    <trip id="190" depart="10.08" departLane="best" departPos="random_free" departSpeed="max" from="56" to="33"/>
    <trip id="191" depart="10.13" departLane="best" departPos="random_free" departSpeed="max" from="31" to="33"/>
    <trip id="192" depart="10.19" departLane="best" departPos="random_free" departSpeed="max" from="75" to="33"/>
    <trip id="193" depart="10.24" departLane="best" departPos="random_free" departSpeed="max" from="73" to="33"/>
    <trip id="194" depart="10.29" departLane="best" departPos="random_free" departSpeed="max" from="80" to="33"/>
    <trip id="195" depart="10.34" departLane="best" departPos="random_free" departSpeed="max" from="5" to="33"/>
    <trip id="196" depart="10.40" departLane="best" departPos="random_free" departSpeed="max" from="74" to="33"/>
    <trip id="197" depart="10.45" departLane="best" departPos="random_free" departSpeed="max" from="75" to="33"/>
    <trip id="198" depart="10.50" departLane="best" departPos="random_free" departSpeed="max" from="2" to="33"/>
    <trip id="199" depart="10.56" departLane="best" departPos="random_free" departSpeed="max" from="21" to="33"/>
    <trip id="200" depart="10.61" departLane="best" departPos="random_free" departSpeed="max" from="40" to="33"/>
    <trip id="201" depart="10.66" departLane="best" departPos="random_free" departSpeed="max" from="31" to="33"/>
    <trip id="202" depart="10.72" departLane="best" departPos="random_free" departSpeed="max" from="73" to="33"/>
    <trip id="203" depart="10.77" departLane="best" departPos="random_free" departSpeed="max" from="57" to="33"/>
    <trip id="204" depart="10.82" departLane="best" departPos="random_free" departSpeed="max" from="25" to="33"/>
    <trip id="205" depart="10.88" departLane="best" departPos="random_free" departSpeed="max" from="8" to="33"/>
    <trip id="206" depart="10.93" departLane="best" departPos="random_free" departSpeed="max" from="2" to="33"/>
    <trip id="207" depart="10.98" departLane="best" departPos="random_free" departSpeed="max" from="8" to="33"/>
    <trip id="208" depart="11.03" departLane="best" departPos="random_free" departSpeed="max" from="32" to="33"/>
    <trip id="209" depart="11.09" departLane="best" departPos="random_free" departSpeed="max" from="39" to="33"/>
    <trip id="210" depart="11.14" departLane="best" departPos="random_free" departSpeed="max" from="47" to="33"/>
    <trip id="211" depart="11.19" departLane="best" departPos="random_free" departSpeed="max" from="59" to="33"/>
    <trip id="212" depart="11.25" departLane="best" departPos="random_free" departSpeed="max" from="14" to="33"/>
    <trip id="213" depart="11.30" departLane="best" departPos="random_free" departSpeed="max" from="54" to="33"/>
    <trip id="214" depart="11.35" departLane="best" departPos="random_free" departSpeed="max" from="42" to="33"/>
    <trip id="215" depart="11.41" departLane="best" departPos="random_free" departSpeed="max" from="77" to="33"/>
    <trip id="216" depart="11.46" departLane="best" departPos="random_free" departSpeed="max" from="67" to="33"/>
    <trip id="217" depart="11.51" departLane="best" departPos="random_free" departSpeed="max" from="66" to="33"/>
    <trip id="218" depart="11.56" departLane="best" departPos="random_free" departSpeed="max" from="66" to="33"/>
    <trip id="219" depart="11.62" departLane="best" departPos="random_free" departSpeed="max" from="29" to="33"/>
    <trip id="220" depart="11.67" departLane="best" departPos="random_free" departSpeed="max" from="65" to="33"/>
    <trip id="221" depart="11.72" departLane="best" departPos="random_free" departSpeed="max" from="19" to="33"/>
    <trip id="222" depart="11.78" departLane="best" departPos="random_free" departSpeed="max" from="20" to="33"/>
    <trip id="223" depart="11.83" departLane="best" departPos="random_free" departSpeed="max" from="29" to="33"/>
    <trip id="224" depart="11.88" departLane="best" departPos="random_free" departSpeed="max" from="65" to="33"/>
    <trip id="225" depart="11.94" departLane="best" departPos="random_free" departSpeed="max" from="27" to="33"/>
    <trip id="226" depart="11.99" departLane="best" departPos="random_free" departSpeed="max" from="77" to="33"/>
    <trip id="227" depart="12.04" departLane="best" departPos="random_free" departSpeed="max" from="41" to="33"/>
    <trip id="228" depart="12.10" departLane="best" departPos="random_free" departSpeed="max" from="20" to="33"/>
    <trip id="229" depart="12.15" departLane="best" departPos="random_free" departSpeed="max" from="24" to="33"/>
    <trip id="230" depart="12.20" departLane="best" departPos="random_free" departSpeed="max" from="13" to="33"/>
    <trip id="231" depart="12.25" departLane="best" departPos="random_free" departSpeed="max" from="66" to="33"/>
    <trip id="232" depart="12.31" departLane="best" departPos="random_free" departSpeed="max" from="48" to="33"/>
    <trip id="233" depart="12.36" departLane="best" departPos="random_free" departSpeed="max" from="37" to="33"/>