<?xml version="1.0" encoding="UTF-8"?>

<!-- generated on 2024-10-17 14:59:10 by Eclipse SUMO netconvert Version 1.21.0
<netconvertConfiguration xmlns:xsi="http://www.w3.org/2001/XMLSchema-instance" xsi:noNamespaceSchemaLocation="http://sumo.dlr.de/xsd/netconvertConfiguration.xsd">

    <input>
        <sumo-net-file value="/home/mangaldeep/workspace/carla/tegel_maps/SU_tegel_map_10_10_24.net.xml"/>
    </input>

    <output>
        <opendrive-output value="/home/mangaldeep/workspace/carla/tegel_maps/SU_tegel_map_10_10_24.xodr"/>
    </output>

    <processing>
        <geometry.min-radius.fix.railways value="false"/>
        <geometry.max-grade.fix value="false"/>
        <offset.disable-normalization value="true"/>
        <lefthand value="0"/>
    </processing>

    <junctions>
        <no-turnarounds value="true"/>
        <junctions.corner-detail value="5"/>
        <junctions.internal-link-detail value="20"/>
        <junctions.limit-turn-speed value="5.50"/>
    </junctions>

    <pedestrian>
        <walkingareas value="0"/>
    </pedestrian>

</netconvertConfiguration>
-->

<OpenDRIVE>
    <header revMajor="1" revMinor="4" name="" version="1.00" date="Thu Oct 17 14:59:10 2024" north="250.01" south="-192.32" east="29.36" west="-669.32"/>
    <road name="" length="190.16928186" id="640" junction="-1">
        <link>
            <predecessor elementType="junction" elementId="1"/>
            <successor elementType="junction" elementId="2"/>
        </link>
        <type s="0" type="town"/>
        <planView>
            <geometry s="0.00000000" x="-355.81092656" y="-117.03087220" hdg="-2.96371656" length="114.48155276">
                <line/>
            </geometry>
            <geometry s="114.48155276" x="-468.48615675" y="-137.28719037" hdg="-2.96371656" length="36.10999990">
                <paramPoly3 aU="-0.00000000" bU="27.08249991" cU="27.08249991" dU="-18.05500006" aV="0.00000000" bV="-0.00000000" cV="-0.00449513" dV="0.00149838" pRange="normalized"/>
            </geometry>
            <geometry s="150.59155266" x="-504.02693287" y="-143.67352919" hdg="-2.96388254" length="39.57772920">
                <line/>
            </geometry>
        </planView>
        <elevationProfile>
            <elevation s="0" a="0.00" b="0" c="0" d="0"/>
        </elevationProfile>
        <lateralProfile/>
        <lanes>
            <laneSection s="0">
                <center>
                    <lane id="0" type="none" level="true">
                        <link/>
                        <roadMark sOffset="0" type="solid" weight="standard" color="standard" width="0.13"/>
                    </lane>
                </center>
                <right>
                    <lane id="-1" type="driving" level="true">
                        <link/>
                        <width sOffset="0" a="75.23" b="0" c="0" d="0"/>
                        <roadMark sOffset="0" type="solid" weight="standard" color="standard" width="0.13"/>
                        <speed sOffset="0" max="36.11"/>
                    </lane>
                 </right>
            </laneSection>
        </lanes>
        <objects/>
        <signals/>
    </road>
    <road name="" length="0.20000000" id="641" junction="-1">
        <link>
            <predecessor elementType="junction" elementId="3"/>
            <successor elementType="junction" elementId="4"/>
        </link>
        <type s="0" type="town"/>
        <planView>
            <geometry s="0.00000000" x="-231.69716133" y="-60.02014225" hdg="0.17907753" length="0.20000000">
                <line/>
            </geometry>
        </planView>
        <elevationProfile>
            <elevation s="0" a="0.00" b="0" c="0" d="0"/>
        </elevationProfile>
        <lateralProfile/>
        <lanes>
            <laneSection s="0">
                <center>
                    <lane id="0" type="none" level="true">
                        <link/>
                        <roadMark sOffset="0" type="solid" weight="standard" color="standard" width="0.13"/>
                    </lane>
                </center>
                <right>
                    <lane id="-1" type="driving" level="true">
                        <link/>
                        <width sOffset="0" a="6.37" b="0" c="0" d="0"/>
                        <roadMark sOffset="0" type="solid" weight="standard" color="standard" width="0.13"/>
                        <speed sOffset="0" max="36.11"/>
                    </lane>
                 </right>
            </laneSection>
        </lanes>
        <objects/>
        <signals/>
    </road>
    <road name="" length="169.81384098" id="642" junction="-1">
        <link>
            <predecessor elementType="junction" elementId="5"/>
            <successor elementType="junction" elementId="6"/>
        </link>
        <type s="0" type="town"/>
        <planView>
            <geometry s="0.00000000" x="-41.55935743" y="-25.84339130" hdg="-2.96201579" length="85.42356712">
                <line/>
            </geometry>
            <geometry s="85.42356712" x="-125.60925878" y="-41.10117300" hdg="-2.96201579" length="36.10994587">
                <paramPoly3 aU="-0.00000000" bU="27.08244874" cU="27.08244874" dU="-18.05503417" aV="0.00000000" bV="-0.00000000" cV="-0.10538608" dV="0.03512883" pRange="normalized"/>
            </geometry>
            <geometry s="121.53351298" x="-161.15100119" y="-47.48174589" hdg="-2.96590709" length="48.28032799">
                <line/>
            </geometry>
        </planView>
        <elevationProfile>
            <elevation s="0" a="0.00" b="0" c="0" d="0"/>
        </elevationProfile>
        <lateralProfile/>
        <lanes>
            <laneSection s="0">
                <center>
                    <lane id="0" type="none" level="true">
                        <link/>
                        <roadMark sOffset="0" type="solid" weight="standard" color="standard" width="0.13"/>
                    </lane>
                </center>
                <right>
                    <lane id="-1" type="driving" level="true">
                        <link/>
                        <width sOffset="0" a="6.86" b="0" c="0" d="0"/>
                        <roadMark sOffset="0" type="solid" weight="standard" color="standard" width="0.13"/>
                        <speed sOffset="0" max="36.11"/>
                    </lane>
                 </right>
            </laneSection>
        </lanes>
        <objects/>
        <signals/>
    </road>
    <road name="" length="182.22794707" id="643" junction="-1">
        <link>
            <predecessor elementType="junction" elementId="4"/>
            <successor elementType="junction" elementId="7"/>
        </link>
        <type s="0" type="town"/>
        <planView>
            <geometry s="0.00000000" x="-219.53558175" y="-57.65968692" hdg="0.17665758" length="59.29267994">
                <line/>
            </geometry>
            <geometry s="59.29267994" x="-161.16569820" y="-47.23958187" hdg="0.17665758" length="36.10999922">
                <paramPoly3 aU="0.00000000" bU="27.08249926" cU="27.08249926" dU="-18.05500049" aV="0.00000000" bV="0.00000000" cV="0.01264617" dV="-0.00421539" pRange="normalized"/>
            </geometry>
            <geometry s="95.40267916" x="-125.61917657" y="-40.88530548" hdg="0.17712453" length="86.82526791">
                <line/>
            </geometry>
        </planView>
        <elevationProfile>
            <elevation s="0" a="0.00" b="0" c="0" d="0"/>
        </elevationProfile>
        <lateralProfile/>
        <lanes>
            <laneSection s="0">
                <center>
                    <lane id="0" type="none" level="true">
                        <link/>
                        <roadMark sOffset="0" type="solid" weight="standard" color="standard" width="0.13"/>
                    </lane>
                </center>
                <right>
                    <lane id="-1" type="driving" level="true">
                        <link/>
                        <width sOffset="0" a="6.61" b="0" c="0" d="0"/>
                        <roadMark sOffset="0" type="solid" weight="standard" color="standard" width="0.13"/>
                        <speed sOffset="0" max="36.11"/>
                    </lane>
                 </right>
            </laneSection>
        </lanes>
        <objects/>
        <signals/>
    </road>
    <road name="" length="54.49461446" id="644" junction="-1">
        <link>
            <predecessor elementType="junction" elementId="8"/>
            <successor elementType="junction" elementId="5"/>
        </link>
        <type s="0" type="town"/>
        <planView>
            <geometry s="0.00000000" x="15.46618499" y="-16.73501705" hdg="-2.63875088" length="4.11136427">
                <line/>
            </geometry>
            <geometry s="4.11136427" x="11.86373935" y="-18.71635540" hdg="-2.63875088" length="0.43416643">
                <paramPoly3 aU="-0.00000000" bU="0.32560289" cU="0.32523324" dU="-0.21695119" aV="0.00000000" bV="0.00000000" cV="-0.02851940" dV="0.01372218" pRange="normalized"/>
            </geometry>
            <geometry s="4.54553070" x="11.47643112" y="-18.91248657" hdg="-2.68751750" length="0.17478434">
                <paramPoly3 aU="-0.00000000" bU="0.13107485" cU="0.13073235" dU="-0.08715690" aV="0.00000000" bV="-0.00000000" cV="-0.02036794" dV="0.01399686" pRange="normalized"/>
            </geometry>
            <geometry s="4.72031504" x="11.31668409" y="-18.98336818" hdg="-2.67794504" length="0.27278037">
                <paramPoly3 aU="-0.00000000" bU="0.20456317" cU="0.20425592" dU="-0.13618680" aV="0.00000000" bV="0.00000000" cV="0.02858479" dV="-0.02054219" pRange="normalized"/>
            </geometry>
            <geometry s="4.99309541" x="11.07643112" y="-19.11248657" hdg="-2.69973463" length="0.39149940">
                <paramPoly3 aU="-0.00000000" bU="0.29361048" cU="0.29295153" dU="-0.19533109" aV="0.00000000" bV="0.00000000" cV="-0.03466430" dV="0.02068354" pRange="normalized"/>
            </geometry>
            <geometry s="5.38459481" x="10.71679607" y="-19.26714661" hdg="-2.72452509" length="0.18789015">
                <paramPoly3 aU="-0.00000000" bU="0.14091221" cU="0.14076788" dU="-0.09384587" aV="0.00000000" bV="-0.00000000" cV="0.01355799" dV="-0.00927932" pRange="normalized"/>
            </geometry>
            <geometry s="5.57248497" x="10.54679607" y="-19.34714661" hdg="-2.72964875" length="0.35118966">
                <paramPoly3 aU="-0.00000000" bU="0.26338933" cU="0.26331923" dU="-0.17556190" aV="0.00000000" bV="-0.00000000" cV="-0.01073512" dV="0.00549411" pRange="normalized"/>
            </geometry>
            <geometry s="5.92367463" x="10.22292640" y="-19.48294014" hdg="-2.74858724" length="0.27662396">
                <paramPoly3 aU="-0.00000000" bU="0.20746576" cU="0.20749287" dU="-0.13834121" aV="0.00000000" bV="0.00000000" cV="-0.00026464" dV="-0.00114508" pRange="normalized"/>
            </geometry>
            <geometry s="6.20029859" x="9.96685779" y="-19.58757308" hdg="-2.76769772" length="0.25632267">
                <paramPoly3 aU="-0.00000000" bU="0.19224008" cU="0.19215464" dU="-0.12810393" aV="0.00000000" bV="0.00000000" cV="-0.01064788" dV="0.00677137" pRange="normalized"/>
            </geometry>
            <geometry s="6.45662126" x="9.72685779" y="-19.67757308" hdg="-2.77280404" length="0.31218669">
                <paramPoly3 aU="-0.00000000" bU="0.23413171" cU="0.23415939" dU="-0.15612605" aV="0.00000000" bV="-0.00000000" cV="0.01297525" dV="-0.01040749" pRange="normalized"/>
            </geometry>
            <geometry s="6.76880795" x="9.43660687" y="-19.79249925" hdg="-2.79532307" length="0.26250699">
                <paramPoly3 aU="-0.00000000" bU="0.19686607" cU="0.19634070" dU="-0.13089415" aV="0.00000000" bV="0.00000000" cV="-0.02814955" dV="0.01855338" pRange="normalized"/>
            </geometry>
            <geometry s="7.03131494" x="9.18660687" y="-19.87249925" hdg="-2.79856871" length="0.18387578">
                <paramPoly3 aU="-0.00000000" bU="0.13788582" cU="0.13726436" dU="-0.09151051" aV="0.00000000" bV="-0.00000000" cV="0.02711487" dV="-0.01837012" pRange="normalized"/>
            </geometry>
            <geometry s="7.21519072" x="9.01660687" y="-19.94249925" hdg="-2.80495541" length="0.45188692">
                <paramPoly3 aU="-0.00000000" bU="0.33890630" cU="0.33873242" dU="-0.22587250" aV="0.00000000" bV="0.00000000" cV="-0.01958142" dV="0.00966401" pRange="normalized"/>
            </geometry>
            <geometry s="7.66707764" x="8.58692208" y="-20.08236364" hdg="-2.83497059" length="0.17720375">
                <paramPoly3 aU="-0.00000000" bU="0.13290034" cU="0.13279081" dU="-0.08852819" aV="0.00000000" bV="-0.00000000" cV="-0.01005013" dV="0.00640527" pRange="normalized"/>
            </geometry>
            <geometry s="7.84428139" x="8.41692208" y="-20.13236364" hdg="-2.84162574" length="0.29158228">
                <paramPoly3 aU="-0.00000000" bU="0.21868436" cU="0.21866005" dU="-0.14577569" aV="0.00000000" bV="0.00000000" cV="0.00914319" dV="-0.00667744" pRange="normalized"/>
            </geometry>
            <geometry s="8.13586367" x="8.13910160" y="-20.22087451" hdg="-2.84960968" length="0.28159134">
                <paramPoly3 aU="-0.00000000" bU="0.21119072" cU="0.21111002" dU="-0.14075392" aV="0.00000000" bV="0.00000000" cV="-0.01018319" dV="0.00538968" pRange="normalized"/>
            </geometry>
            <geometry s="8.41745501" x="7.86809144" y="-20.29732765" hdg="-2.86948563" length="0.35554068">
                <paramPoly3 aU="-0.00000000" bU="0.26665109" cU="0.26671116" dU="-0.17782837" aV="0.00000000" bV="-0.00000000" cV="0.00337687" dV="-0.00417994" pRange="normalized"/>
            </geometry>
            <geometry s="8.77299570" x="7.52542296" y="-20.39210795" hdg="-2.89118647" length="0.28138493">
                <paramPoly3 aU="-0.00000000" bU="0.21103388" cU="0.21082108" dU="-0.14056136" aV="0.00000000" bV="0.00000000" cV="-0.01652945" dV="0.00961756" pRange="normalized"/>
            </geometry>
            <geometry s="9.05438063" x="7.25118965" y="-20.45511548" hdg="-2.91111931" length="0.25709980">
                <paramPoly3 aU="-0.00000000" bU="0.19282440" cU="0.19281491" dU="-0.12854341" aV="0.00000000" bV="-0.00000000" cV="0.00431604" dV="-0.00301214" pRange="normalized"/>
            </geometry>
            <geometry s="9.31148042" x="7.00118965" y="-20.51511548" hdg="-2.91321613" length="0.20657952">
                <paramPoly3 aU="-0.00000000" bU="0.15493418" cU="0.15491292" dU="-0.10327642" aV="0.00000000" bV="-0.00000000" cV="-0.00450143" dV="0.00265844" pRange="normalized"/>
            </geometry>
            <geometry s="9.51805995" x="6.79956528" y="-20.56008722" hdg="-2.91984829" length="0.36280747">
                <paramPoly3 aU="-0.00000000" bU="0.27210099" cU="0.27215146" dU="-0.18145144" aV="0.00000000" bV="-0.00000000" cV="0.00670721" dV="-0.00623426" pRange="normalized"/>
            </geometry>
            <geometry s="9.88086741" x="6.44575136" y="-20.64034000" hdg="-2.93928480" length="0.26122877">
                <paramPoly3 aU="-0.00000000" bU="0.19591515" cU="0.19561039" dU="-0.13041372" aV="0.00000000" bV="0.00000000" cV="-0.01974655" dV="0.01222255" pRange="normalized"/>
            </geometry>
            <geometry s="10.14209618" x="6.18845299" y="-20.68543482" hdg="-2.95370708" length="0.35313894">
                <paramPoly3 aU="-0.00000000" bU="0.26480119" cU="0.26524606" dU="-0.17699899" aV="0.00000000" bV="0.00000000" cV="0.02761630" dV="-0.02385878" pRange="normalized"/>
            </geometry>
            <geometry s="10.49523512" x="5.84231973" y="-20.75506930" hdg="-3.01546716" length="43.99937934">
                <line/>
            </geometry>
        </planView>
        <elevationProfile>
            <elevation s="0" a="0.00" b="0" c="0" d="0"/>
        </elevationProfile>
        <lateralProfile/>
        <lanes>
            <laneSection s="0">
                <center>
                    <lane id="0" type="none" level="true">
                        <link/>
                        <roadMark sOffset="0" type="solid" weight="standard" color="standard" width="0.13"/>
                    </lane>
                </center>
                <right>
                    <lane id="-1" type="driving" level="true">
                        <link/>
                        <width sOffset="0" a="8.84" b="0" c="0" d="0"/>
                        <roadMark sOffset="0" type="solid" weight="standard" color="standard" width="0.13"/>
                        <speed sOffset="0" max="36.11"/>
                    </lane>
                 </right>
            </laneSection>
        </lanes>
        <objects/>
        <signals/>
    </road>
    <road name="" length="26.30950874" id="645" junction="-1">
        <link>
            <predecessor elementType="junction" elementId="6"/>
            <successor elementType="junction" elementId="9"/>
        </link>
        <type s="0" type="town"/>
        <planView>
            <geometry s="0.00000000" x="-213.88649743" y="-57.17102699" hdg="-2.96371989" length="1.58328104">
                <line/>
            </geometry>
            <geometry s="1.58328104" x="-215.44479795" y="-57.45116687" hdg="-2.96371989" length="0.64393772">
                <paramPoly3 aU="-0.00000000" bU="0.48295282" cU="0.48293053" dU="-0.32195428" aV="0.00000000" bV="0.00000000" cV="-0.00833272" dV="0.00511838" pRange="normalized"/>
            </geometry>
            <geometry s="2.22721876" x="-216.07913604" y="-57.56193768" hdg="-2.96643298" length="0.36430583">
                <paramPoly3 aU="-0.00000000" bU="0.27322794" cU="0.27322734" dU="-0.18215431" aV="0.00000000" bV="0.00000000" cV="0.00652737" dV="-0.00506008" pRange="normalized"/>
            </geometry>
            <geometry s="2.59152458" x="-216.43760703" y="-57.62686756" hdg="-2.97421227" length="0.37181124">
                <paramPoly3 aU="-0.00000000" bU="0.27885655" cU="0.27881273" dU="-0.18588542" aV="0.00000000" bV="0.00000000" cV="-0.00875782" dV="0.00445661" pRange="normalized"/>
            </geometry>
            <geometry s="2.96333582" x="-216.80491162" y="-57.68456561" hdg="-2.98908007" length="0.20889031">
                <paramPoly3 aU="-0.00000000" bU="0.15665743" cU="0.15674579" dU="-0.10453025" aV="0.00000000" bV="0.00000000" cV="-0.00925312" dV="0.00802645" pRange="normalized"/>
            </geometry>
            <geometry s="3.17222613" x="-217.01154645" y="-57.71508559" hdg="-2.95349730" length="0.27055451">
                <paramPoly3 aU="-0.00000000" bU="0.20290725" cU="0.20250887" dU="-0.13501165" aV="0.00000000" bV="0.00000000" cV="0.02332733" dV="-0.01467073" pRange="normalized"/>
            </geometry>
            <geometry s="3.44278064" x="-217.27556289" y="-57.77415194" hdg="-2.94047392" length="0.32558021">
                <paramPoly3 aU="-0.00000000" bU="0.24418231" cU="0.24406265" dU="-0.16270903" aV="0.00000000" bV="-0.00000000" cV="-0.01446541" dV="0.00933103" pRange="normalized"/>
            </geometry>
            <geometry s="3.76836085" x="-217.59556289" y="-57.83415194" hdg="-2.94431425" length="0.21455614">
                <paramPoly3 aU="-0.00000000" bU="0.16091194" cU="0.16090573" dU="-0.10730358" aV="0.00000000" bV="-0.00000000" cV="0.00600117" dV="-0.00211698" pRange="normalized"/>
            </geometry>
            <geometry s="3.98291699" x="-217.80515489" y="-57.88000582" hdg="-2.90918607" length="0.25977456">
                <paramPoly3 aU="-0.00000000" bU="0.19482913" cU="0.19477942" dU="-0.12986205" aV="0.00000000" bV="-0.00000000" cV="0.00769474" dV="-0.00404259" pRange="normalized"/>
            </geometry>
            <geometry s="4.24269156" x="-218.05707692" y="-57.94338462" hdg="-2.89244386" length="0.26386266">
                <paramPoly3 aU="-0.00000000" bU="0.19789568" cU="0.19791352" dU="-0.13194921" aV="0.00000000" bV="-0.00000000" cV="-0.00076436" dV="0.00146124" pRange="normalized"/>
            </geometry>
            <geometry s="4.50655422" x="-218.31261778" y="-58.00912235" hdg="-2.87801651" length="0.27656940">
                <paramPoly3 aU="-0.00000000" bU="0.20742575" cU="0.20739420" dU="-0.13826977" aV="0.00000000" bV="-0.00000000" cV="0.00638476" dV="-0.00327490" pRange="normalized"/>
            </geometry>
            <geometry s="4.78312362" x="-218.57880693" y="-58.08417576" hdg="-2.86381911" length="0.25054691">
                <paramPoly3 aU="-0.00000000" bU="0.18790833" cU="0.18793343" dU="-0.12529865" aV="0.00000000" bV="0.00000000" cV="-0.00085652" dV="0.00167314" pRange="normalized"/>
            </geometry>
            <geometry s="5.03367053" x="-218.81952238" y="-58.15366382" hdg="-2.84622248" length="0.21501050">
                <paramPoly3 aU="-0.00000000" bU="0.16125311" cU="0.16125473" dU="-0.10753370" aV="0.00000000" bV="0.00000000" cV="0.00534052" dV="-0.00174853" pRange="normalized"/>
            </geometry>
            <geometry s="5.24868103" x="-219.02414134" y="-58.21967794" hdg="-2.81250850" length="0.27437517">
                <paramPoly3 aU="-0.00000000" bU="0.20577994" cU="0.20572288" dU="-0.13715393" aV="0.00000000" bV="0.00000000" cV="0.00840059" dV="-0.00474428" pRange="normalized"/>
            </geometry>
            <geometry s="5.52305621" x="-219.28258669" y="-58.31180116" hdg="-2.80002715" length="0.30939297">
                <paramPoly3 aU="-0.00000000" bU="0.23204453" cU="0.23204610" dU="-0.15469801" aV="0.00000000" bV="-0.00000000" cV="-0.00161708" dV="0.00138521" pRange="normalized"/>
            </geometry>
            <geometry s="5.83244918" x="-219.57418381" y="-58.41521763" hdg="-2.79605608" length="0.26484278">
                <paramPoly3 aU="-0.00000000" bU="0.19863125" cU="0.19863522" dU="-0.13242884" aV="0.00000000" bV="-0.00000000" cV="0.00185574" dV="-0.00039525" pRange="normalized"/>
            </geometry>
            <geometry s="6.09729196" x="-219.82287324" y="-58.50629272" hdg="-2.78334009" length="0.22482681">
                <paramPoly3 aU="-0.00000000" bU="0.16861494" cU="0.16867878" dU="-0.11248189" aV="0.00000000" bV="0.00000000" cV="0.00027155" dV="0.00163566" pRange="normalized"/>
            </geometry>
            <geometry s="6.32211877" x="-220.03274325" y="-58.58690648" hdg="-2.75101180" length="0.25135217">
                <paramPoly3 aU="-0.00000000" bU="0.18851078" cU="0.18837533" dU="-0.12559557" aV="0.00000000" bV="-0.00000000" cV="0.01239456" dV="-0.00703426" pRange="normalized"/>
            </geometry>
            <geometry s="6.57347095" x="-220.26306781" y="-58.68753582" hdg="-2.73145549" length="0.30358363">
                <paramPoly3 aU="-0.00000000" bU="0.22768743" cU="0.22768866" dU="-0.15179317" aV="0.00000000" bV="0.00000000" cV="-0.00233781" dV="0.00189254" pRange="normalized"/>
            </geometry>
            <geometry s="6.87705458" x="-220.54165097" y="-58.80817665" hdg="-2.72705474" length="0.26435320">
                <paramPoly3 aU="-0.00000000" bU="0.19826409" cU="0.19826146" dU="-0.13217943" aV="0.00000000" bV="-0.00000000" cV="0.00287499" dV="-0.00109373" pRange="normalized"/>
            </geometry>
            <geometry s="7.14140778" x="-220.78289022" y="-58.91627694" hdg="-2.71460243" length="0.22621620">
                <paramPoly3 aU="-0.00000000" bU="0.16965705" cU="0.16972466" dU="-0.11317735" aV="0.00000000" bV="0.00000000" cV="-0.00076632" dV="0.00227684" pRange="normalized"/>
            </geometry>
            <geometry s="7.36762398" x="-220.98815956" y="-59.01133055" hdg="-2.68337043" length="0.24881160">
                <paramPoly3 aU="-0.00000000" bU="0.18660510" cU="0.18645637" dU="-0.12431666" aV="0.00000000" bV="0.00000000" cV="0.01293297" dV="-0.00737908" pRange="normalized"/>
            </geometry>
            <geometry s="7.61643558" x="-221.20878714" y="-59.12634487" hdg="-2.66338736" length="0.27531110">
                <paramPoly3 aU="-0.00000000" bU="0.20648181" cU="0.20649425" dU="-0.13766759" aV="0.00000000" bV="0.00000000" cV="-0.00417601" dV="0.00359359" pRange="normalized"/>
            </geometry>
            <geometry s="7.89174668" x="-221.45348014" y="-59.25252102" hdg="-2.65162462" length="0.25274592">
                <paramPoly3 aU="-0.00000000" bU="0.18955671" cU="0.18951966" dU="-0.12636297" aV="0.00000000" bV="0.00000000" cV="0.00712638" dV="-0.00330569" pRange="normalized"/>
            </geometry>
            <geometry s="8.14449260" x="-221.67466327" y="-59.37481855" hdg="-2.62874980" length="0.29372506">
                <paramPoly3 aU="-0.00000000" bU="0.22029342" cU="0.22027762" dU="-0.14685302" aV="0.00000000" bV="-0.00000000" cV="0.00458234" dV="-0.00262177" pRange="normalized"/>
            </geometry>
            <geometry s="8.43821766" x="-221.92963342" y="-59.52064151" hdg="-2.62285136" length="0.27186699">
                <paramPoly3 aU="-0.00000000" bU="0.20389895" cU="0.20391300" dU="-0.13594678" aV="0.00000000" bV="0.00000000" cV="-0.00310245" dV="0.00287438" pRange="normalized"/>
            </geometry>
            <geometry s="8.71008465" x="-222.16584615" y="-59.65523077" hdg="-2.61099114" length="0.22867371">
                <paramPoly3 aU="-0.00000000" bU="0.17150154" cU="0.17149520" dU="-0.11435408" aV="0.00000000" bV="0.00000000" cV="0.00539335" dV="-0.00194099" pRange="normalized"/>
            </geometry>
            <geometry s="8.93875836" x="-222.36130402" y="-59.77391357" hdg="-2.58204426" length="0.25341500">
                <paramPoly3 aU="-0.00000000" bU="0.19005897" cU="0.19004270" dU="-0.12670950" aV="0.00000000" bV="0.00000000" cV="0.00545313" dV="-0.00228648" pRange="normalized"/>
            </geometry>
            <geometry s="9.19217336" x="-222.57437173" y="-59.91109875" hdg="-2.56075023" length="0.29251832">
                <paramPoly3 aU="-0.00000000" bU="0.21938825" cU="0.21936792" dU="-0.14624700" aV="0.00000000" bV="0.00000000" cV="0.00518340" dV="-0.00295400" pRange="normalized"/>
            </geometry>
            <geometry s="9.48469168" x="-222.81768626" y="-60.07347062" hdg="-2.55389108" length="0.27632679">
                <paramPoly3 aU="-0.00000000" bU="0.20724428" cU="0.20725272" dU="-0.13817138" aV="0.00000000" bV="0.00000000" cV="-0.00256854" dV="0.00234554" pRange="normalized"/>
            </geometry>
            <geometry s="9.76101846" x="-223.04777284" y="-60.22649369" hdg="-2.54472520" length="0.20256292">
                <paramPoly3 aU="-0.00000000" bU="0.15191536" cU="0.15198295" dU="-0.10136324" aV="0.00000000" bV="0.00000000" cV="0.00213480" dV="0.00062092" pRange="normalized"/>
            </geometry>
            <geometry s="9.96358138" x="-223.21374080" y="-60.34260866" hdg="-2.50434727" length="0.24726109">
                <paramPoly3 aU="-0.00000000" bU="0.18544235" cU="0.18530008" dU="-0.12354542" aV="0.00000000" bV="-0.00000000" cV="0.01260737" dV="-0.00718512" pRange="normalized"/>
            </geometry>
            <geometry s="10.21084246" x="-223.40919622" y="-60.49404492" hdg="-2.48461271" length="0.29237337">
                <paramPoly3 aU="-0.00000000" bU="0.21927915" cU="0.21928537" dU="-0.14619282" aV="0.00000000" bV="0.00000000" cV="-0.00347073" dV="0.00292754" pRange="normalized"/>
            </geometry>
            <geometry s="10.50321584" x="-223.64103965" y="-60.67217445" hdg="-2.47621618" length="0.32015888">
                <paramPoly3 aU="-0.00000000" bU="0.24011716" cU="0.24007734" dU="-0.16005232" aV="0.00000000" bV="-0.00000000" cV="0.01004328" dV="-0.00704523" pRange="normalized"/>
            </geometry>
            <geometry s="10.82337471" x="-223.89103965" y="-60.87217445" hdg="-2.48058544" length="0.20094946">
                <paramPoly3 aU="-0.00000000" bU="0.15069000" cU="0.15066901" dU="-0.10048712" aV="0.00000000" bV="0.00000000" cV="-0.01928642" dV="0.01488962" pRange="normalized"/>
            </geometry>
            <geometry s="11.02432417" x="-224.05230199" y="-60.99202144" hdg="-2.44012033" length="0.24374872">
                <paramPoly3 aU="-0.00000000" bU="0.18279135" cU="0.18186395" dU="-0.12125525" aV="0.00000000" bV="0.00000000" cV="0.03383765" dV="-0.02131836" pRange="normalized"/>
            </geometry>
            <geometry s="11.26807289" x="-224.23015432" y="-61.15866136" hdg="-2.41976675" length="0.32650482">
                <paramPoly3 aU="-0.00000000" bU="0.24487242" cU="0.24461322" dU="-0.16307668" aV="0.00000000" bV="0.00000000" cV="-0.02135752" dV="0.01379455" pRange="normalized"/>
            </geometry>
            <geometry s="11.59457771" x="-224.48015432" y="-61.36866136" hdg="-2.42520384" length="0.20098553">
                <paramPoly3 aU="-0.00000000" bU="0.15073208" cU="0.15060551" dU="-0.10044485" aV="0.00000000" bV="0.00000000" cV="0.01126320" dV="-0.00547505" pRange="normalized"/>
            </geometry>
            <geometry s="11.79556325" x="-224.62786312" y="-61.50494600" hdg="-2.38471535" length="0.29257968">
                <paramPoly3 aU="-0.00000000" bU="0.21943423" cU="0.21940926" dU="-0.14627394" aV="0.00000000" bV="0.00000000" cV="0.00584055" dV="-0.00349233" pRange="normalized"/>
            </geometry>
            <geometry s="12.08814293" x="-224.83894402" y="-61.70754736" hdg="-2.37922801" length="0.23591393">
                <paramPoly3 aU="-0.00000000" bU="0.17693030" cU="0.17697909" dU="-0.11800349" aV="0.00000000" bV="-0.00000000" cV="-0.00653002" dV="0.00578726" pRange="normalized"/>
            </geometry>
            <geometry s="12.32405686" x="-225.01006530" y="-61.86993470" hdg="-2.35491247" length="0.29167626">
                <paramPoly3 aU="-0.00000000" bU="0.21875276" cU="0.21854669" dU="-0.14570105" aV="0.00000000" bV="-0.00000000" cV="0.01736648" dV="-0.01088832" pRange="normalized"/>
            </geometry>