<?xml version="1.0" encoding="UTF-8"?>

<!-- generated on 2024-06-11 15:16:39 by Eclipse SUMO netconvert Version 1.19.0
<configuration xmlns:xsi="http://www.w3.org/2001/XMLSchema-instance" xsi:noNamespaceSchemaLocation="http://sumo.dlr.de/xsd/netconvertConfiguration.xsd">

    <input>
        <sumo-net-file value="/home/mangaldeep/workspace/mtdm_poc-1/LimSim_DIPP/tegel_map/Decision_tegel_map_18_04_2024_with_centerlines.net.xml"/>
    </input>

    <output>
        <opendrive-output value="trial2.xodr"/>
    </output>

    <processing>
        <geometry.min-radius.fix.railways value="false"/>
        <geometry.max-grade.fix value="false"/>
        <offset.disable-normalization value="true"/>
        <lefthand value="0"/>
    </processing>

    <junctions>
        <no-turnarounds value="true"/>
        <junctions.corner-detail value="5"/>
        <junctions.internal-link-detail value="20"/>
        <junctions.limit-turn-speed value="5.50"/>
    </junctions>

    <pedestrian>
        <walkingareas value="0"/>
    </pedestrian>

</configuration>
-->

<OpenDRIVE>
    <header revMajor="1" revMinor="4" name="" version="1.00" date="Tue Jun 11 15:16:39 2024" north="151.71" south="-107.26" east="15.27" west="-409.35">
        <geoReference>
 <![CDATA[
 +proj=utm +zone=33 +ellps=WGS84 +datum=WGS84 +units=m +no_defs
]]>
        </geoReference>
        <offset x="-409.53" y="-107.39" z="0.00" hdg="0"/>
    </header>
    <road name="" length="130.62093429" id="390" junction="-1">
        <link>
            <predecessor elementType="junction" elementId="1"/>
            <successor elementType="junction" elementId="2"/>
        </link>
        <type s="0" type="town"/>
        <planView>
            <geometry s="0.00000000" x="1.96977004" y="-12.22826009" hdg="-2.99800286" length="130.62093429">
                <line/>
            </geometry>
        </planView>
        <elevationProfile>
            <elevation s="0" a="0.00" b="0" c="0" d="0"/>
        </elevationProfile>
        <lateralProfile/>
        <lanes>
            <laneSection s="0">
                <center>
                    <lane id="0" type="none" level="true">
                        <link/>
                        <roadMark sOffset="0" type="solid" weight="standard" color="standard" width="0.13"/>
                    </lane>
                </center>
                <right>
                    <lane id="-1" type="driving" level="true">
                        <link/>
                        <width sOffset="0" a="2.00" b="0" c="0" d="0"/>
                        <roadMark sOffset="0" type="solid" weight="standard" color="standard" width="0.13"/>
                        <speed sOffset="0" max="36.11"/>
                    </lane>
                 </right>
            </laneSection>
        </lanes>
        <objects/>
        <signals/>
    </road>
    <road name="" length="40.81691942" id="391" junction="-1">
        <link>
            <predecessor elementType="junction" elementId="3"/>
            <successor elementType="junction" elementId="4"/>
        </link>
        <type s="0" type="town"/>
        <planView>
            <geometry s="0.00000000" x="-369.27593848" y="-21.15020343" hdg="-2.49590336" length="0.58314303">
                <line/>
            </geometry>
            <geometry s="0.58314303" x="-369.74168617" y="-21.50110923" hdg="-2.49590336" length="13.13785812">
                <paramPoly3 aU="-0.00000000" bU="9.84620835" cU="9.76673967" dU="-6.55548742" aV="0.00000000" bV="0.00000000" cV="2.47250793" dV="-1.11074413" pRange="normalized"/>
            </geometry>
            <geometry s="13.72100115" x="-379.35104627" y="-30.44604504" hdg="-2.33136453" length="19.31084602">
                <paramPoly3 aU="-0.00000000" bU="14.48193775" cU="14.45183969" dU="-9.64091666" aV="0.00000000" bV="-0.00000000" cV="1.64325588" dV="-0.84784941" pRange="normalized"/>
            </geometry>
            <geometry s="33.03184716" x="-392.07402764" y="-44.97095101" hdg="-2.28003922" length="3.93793319">
                <paramPoly3 aU="-0.00000000" bU="2.95062087" cU="2.98481670" dU="-2.00613282" aV="0.00000000" bV="0.00000000" cV="0.05202945" dV="0.14338873" pRange="normalized"/>
            </geometry>
            <geometry s="36.96978035" x="-394.48473030" y="-48.07999214" hdg="-1.95847424" length="3.73404205">
                <line/>
            </geometry>
            <geometry s="40.70382240" x="-395.89634633" y="-51.53692868" hdg="1.17212082" length="0.11309702">
                <line/>
            </geometry>
        </planView>
        <elevationProfile>
            <elevation s="0" a="0.00" b="0" c="0" d="0"/>
        </elevationProfile>
        <lateralProfile/>
        <lanes>
            <laneSection s="0">
                <center>
                    <lane id="0" type="none" level="true">
                        <link/>
                        <roadMark sOffset="0" type="solid" weight="standard" color="standard" width="0.13"/>
                    </lane>
                </center>
                <right>
                    <lane id="-1" type="driving" level="true">
                        <link/>
                        <width sOffset="0" a="2.14" b="0" c="0" d="0"/>
                        <roadMark sOffset="0" type="solid" weight="standard" color="standard" width="0.13"/>
                        <speed sOffset="0" max="36.11"/>
                    </lane>
                 </right>
            </laneSection>
        </lanes>
        <objects/>
        <signals/>
    </road>
    <road name="" length="27.46799030" id="392" junction="-1">
        <link>
            <predecessor elementType="junction" elementId="5"/>
            <successor elementType="junction" elementId="3"/>
        </link>
        <type s="0" type="town"/>
        <planView>
            <geometry s="0.00000000" x="-345.71591456" y="-1.52262881" hdg="-2.44564128" length="27.46799030">
                <line/>
            </geometry>
        </planView>
        <elevationProfile>
            <elevation s="0" a="0.00" b="0" c="0" d="0"/>
        </elevationProfile>
        <lateralProfile/>
        <lanes>
            <laneSection s="0">
                <center>
                    <lane id="0" type="none" level="true">
                        <link/>
                        <roadMark sOffset="0" type="solid" weight="standard" color="standard" width="0.13"/>
                    </lane>
                </center>
                <right>
                    <lane id="-1" type="driving" level="true">
                        <link/>
                        <width sOffset="0" a="2.04" b="0" c="0" d="0"/>
                        <roadMark sOffset="0" type="solid" weight="standard" color="standard" width="0.13"/>
                        <speed sOffset="0" max="36.11"/>
                    </lane>
                 </right>
            </laneSection>
        </lanes>
        <objects/>
        <signals/>
    </road>
    <road name="" length="45.93426159" id="393" junction="-1">
        <link>
            <predecessor elementType="junction" elementId="4"/>
        </link>
        <type s="0" type="town"/>
        <planView>
            <geometry s="0.00000000" x="-399.85171956" y="-62.39512539" hdg="-2.05168361" length="0.04250015">
                <line/>
            </geometry>
            <geometry s="0.04250015" x="-399.87137869" y="-62.43280538" hdg="-1.89025725" length="10.87996626">
                <line/>
            </geometry>
            <geometry s="10.92246641" x="-403.28828432" y="-72.76229819" hdg="-1.71603758" length="35.01179518">
                <line/>
            </geometry>
        </planView>
        <elevationProfile>
            <elevation s="0" a="0.00" b="0" c="0" d="0"/>
        </elevationProfile>
        <lateralProfile/>
        <lanes>
            <laneSection s="0">
                <center>
                    <lane id="0" type="none" level="true">
                        <link/>
                        <roadMark sOffset="0" type="solid" weight="standard" color="standard" width="0.13"/>
                    </lane>
                </center>
                <right>
                    <lane id="-1" type="driving" level="true">
                        <link/>
                        <width sOffset="0" a="2.01" b="0" c="0" d="0"/>
                        <roadMark sOffset="0" type="solid" weight="standard" color="standard" width="0.13"/>
                        <speed sOffset="0" max="36.11"/>
                    </lane>
                 </right>
            </laneSection>
        </lanes>
        <objects/>
        <signals/>
    </road>
    <road name="" length="15.15660855" id="394" junction="-1">
        <link>
            <predecessor elementType="junction" elementId="6"/>
            <successor elementType="junction" elementId="7"/>
        </link>
        <type s="0" type="town"/>
        <planView>
            <geometry s="0.00000000" x="-373.65177863" y="-32.30281795" hdg="1.45405540" length="2.78639846">
                <line/>
            </geometry>
            <geometry s="2.78639846" x="-373.32723024" y="-29.53538507" hdg="1.45405540" length="6.94625006">
                <paramPoly3 aU="0.00000000" bU="5.16758833" cU="5.54638103" dU="-3.95458089" aV="0.00000000" bV="-0.00000000" cV="-1.29195631" dV="-0.04385444" pRange="normalized"/>
            </geometry>
            <geometry s="9.73264852" x="-371.21320552" y="-22.97759411" hdg="0.90077357" length="5.42396003">
                <line/>
            </geometry>
        </planView>
        <elevationProfile>
            <elevation s="0" a="0.00" b="0" c="0" d="0"/>
        </elevationProfile>
        <lateralProfile/>
        <lanes>
            <laneSection s="0">
                <center>
                    <lane id="0" type="none" level="true">
                        <link/>
                        <roadMark sOffset="0" type="solid" weight="standard" color="standard" width="0.13"/>
                    </lane>
                </center>
                <right>
                    <lane id="-1" type="driving" level="true">
                        <link/>
                        <width sOffset="0" a="3.60" b="0" c="0" d="0"/>
                        <roadMark sOffset="0" type="solid" weight="standard" color="standard" width="0.13"/>
                        <speed sOffset="0" max="36.11"/>
                    </lane>
                 </right>
            </laneSection>
        </lanes>
        <objects/>
        <signals/>
    </road>
    <road name="" length="24.29281136" id="395" junction="-1">
        <link>
            <predecessor elementType="junction" elementId="7"/>
            <successor elementType="junction" elementId="8"/>
        </link>
        <type s="0" type="town"/>
        <planView>
            <geometry s="0.00000000" x="-363.76184220" y="-16.54803756" hdg="0.70182666" length="24.29281136">
                <line/>
            </geometry>
        </planView>
        <elevationProfile>
            <elevation s="0" a="0.00" b="0" c="0" d="0"/>
        </elevationProfile>
        <lateralProfile/>
        <lanes>
            <laneSection s="0">
                <center>
                    <lane id="0" type="none" level="true">
                        <link/>
                        <roadMark sOffset="0" type="solid" weight="standard" color="standard" width="0.13"/>
                    </lane>
                </center>
                <right>
                    <lane id="-1" type="driving" level="true">
                        <link/>
                        <width sOffset="0" a="2.09" b="0" c="0" d="0"/>
                        <roadMark sOffset="0" type="solid" weight="standard" color="standard" width="0.13"/>
                        <speed sOffset="0" max="36.11"/>
                    </lane>
                 </right>
            </laneSection>
        </lanes>
        <objects/>
        <signals/>
    </road>
    <road name="" length="143.69131868" id="396" junction="-1">
        <link>
            <predecessor elementType="junction" elementId="9"/>
            <successor elementType="junction" elementId="5"/>
        </link>
        <type s="0" type="town"/>
        <planView>
            <geometry s="0.00000000" x="-226.97966580" y="99.35022167" hdg="-2.43671935" length="143.69131868">
                <line/>
            </geometry>
        </planView>
        <elevationProfile>
            <elevation s="0" a="0.00" b="0" c="0" d="0"/>
        </elevationProfile>
        <lateralProfile/>
        <lanes>
            <laneSection s="0">
                <center>
                    <lane id="0" type="none" level="true">
                        <link/>
                        <roadMark sOffset="0" type="solid" weight="standard" color="standard" width="0.13"/>
                    </lane>
                </center>
                <right>
                    <lane id="-1" type="driving" level="true">
                        <link/>
                        <width sOffset="0" a="2.10" b="0" c="0" d="0"/>
                        <roadMark sOffset="0" type="solid" weight="standard" color="standard" width="0.13"/>
                        <speed sOffset="0" max="36.11"/>
                    </lane>
                 </right>
            </laneSection>
        </lanes>
        <objects/>
        <signals/>
    </road>
    <road name="" length="143.06403620" id="397" junction="-1">
        <link>
            <predecessor elementType="junction" elementId="8"/>
            <successor elementType="junction" elementId="10"/>
        </link>
        <type s="0" type="town"/>
        <planView>
            <geometry s="0.00000000" x="-336.11637367" y="6.82679679" hdg="0.70318742" length="143.06403620">
                <line/>
            </geometry>
        </planView>
        <elevationProfile>
            <elevation s="0" a="0.00" b="0" c="0" d="0"/>
        </elevationProfile>
        <lateralProfile/>
        <lanes>
            <laneSection s="0">
                <center>
                    <lane id="0" type="none" level="true">
                        <link/>
                        <roadMark sOffset="0" type="solid" weight="standard" color="standard" width="0.13"/>
                    </lane>
                </center>
                <right>
                    <lane id="-1" type="driving" level="true">
                        <link/>
                        <width sOffset="0" a="2.07" b="0" c="0" d="0"/>
                        <roadMark sOffset="0" type="solid" weight="standard" color="standard" width="0.13"/>
                        <speed sOffset="0" max="36.11"/>
                    </lane>
                 </right>
            </laneSection>
        </lanes>
        <objects/>
        <signals/>
    </road>
    <road name="" length="55.33226551" id="398" junction="-1">
        <link>
            <predecessor elementType="junction" elementId="11"/>
            <successor elementType="junction" elementId="9"/>
        </link>
        <type s="0" type="town"/>
        <planView>
            <geometry s="0.00000000" x="-176.74433570" y="127.42733772" hdg="-2.77146627" length="24.78155536">
                <line/>
            </geometry>
            <geometry s="24.78155536" x="-199.84772468" y="118.46302492" hdg="-2.77146627" length="17.93811590">
                <paramPoly3 aU="-0.00000000" bU="13.41809817" cU="13.17158885" dU="-9.00479606" aV="0.00000000" bV="0.00000000" cV="5.69209539" dV="-2.39782047" pRange="normalized"/>
            </geometry>
            <geometry s="42.71967127" x="-215.05014678" y="109.03079297" hdg="-2.45383292" length="12.61259424">
                <line/>
            </geometry>
        </planView>
        <elevationProfile>
            <elevation s="0" a="0.00" b="0" c="0" d="0"/>
        </elevationProfile>
        <lateralProfile/>
        <lanes>
            <laneSection s="0">
                <center>
                    <lane id="0" type="none" level="true">
                        <link/>
                        <roadMark sOffset="0" type="solid" weight="standard" color="standard" width="0.13"/>
                    </lane>
                </center>
                <right>
                    <lane id="-1" type="driving" level="true">
                        <link/>
                        <width sOffset="0" a="2.33" b="0" c="0" d="0"/>
                        <roadMark sOffset="0" type="solid" weight="standard" color="standard" width="0.13"/>
                        <speed sOffset="0" max="36.11"/>
                    </lane>
                 </right>
            </laneSection>
        </lanes>
        <objects/>
        <signals/>
    </road>
    <road name="" length="11.87919500" id="399" junction="-1">
        <link>
            <predecessor elementType="junction" elementId="5"/>
            <successor elementType="junction" elementId="12"/>
        </link>
        <type s="0" type="town"/>
        <planView>
            <geometry s="0.00000000" x="-342.46536040" y="-1.76770438" hdg="-1.59681276" length="0.20000000">
                <line/>
            </geometry>
            <geometry s="0.20000000" x="-342.47056310" y="-1.96763669" hdg="-1.59681276" length="11.47919500">
                <paramPoly3 aU="-0.00000000" bU="8.56529601" cU="9.15452381" dU="-6.30231773" aV="0.00000000" bV="0.00000000" cV="2.37297200" dV="-2.62999455" pRange="normalized"/>
            </geometry>
            <geometry s="11.67919500" x="-343.02450785" y="-13.37458895" hdg="-1.97266697" length="0.20000000">
                <line/>
            </geometry>
        </planView>
        <elevationProfile>
            <elevation s="0" a="0.00" b="0" c="0" d="0"/>
        </elevationProfile>
        <lateralProfile/>
        <lanes>
            <laneSection s="0">
                <center>
                    <lane id="0" type="none" level="true">
                        <link/>
                        <roadMark sOffset="0" type="solid" weight="standard" color="standard" width="0.13"/>
                    </lane>
                </center>
                <right>
                    <lane id="-1" type="driving" level="true">
                        <link/>
                        <width sOffset="0" a="2.13" b="0" c="0" d="0"/>
                        <roadMark sOffset="0" type="solid" weight="standard" color="standard" width="0.13"/>
                        <speed sOffset="0" max="36.11"/>
                    </lane>
                 </right>
            </laneSection>
        </lanes>
        <objects/>
        <signals/>
    </road>
    <road name="" length="6.43121509" id="400" junction="-1">
        <link>
            <predecessor elementType="junction" elementId="13"/>
            <successor elementType="junction" elementId="11"/>
        </link>
        <type s="0" type="town"/>
        <planView>
            <geometry s="0.00000000" x="-169.38614530" y="128.86805286" hdg="-2.96493848" length="6.43121509">
                <line/>
            </geometry>
        </planView>
        <elevationProfile>
            <elevation s="0" a="0.00" b="0" c="0" d="0"/>
        </elevationProfile>
        <lateralProfile/>
        <lanes>
            <laneSection s="0">
                <center>
                    <lane id="0" type="none" level="true">
                        <link/>
                        <roadMark sOffset="0" type="solid" weight="standard" color="standard" width="0.13"/>
                    </lane>
                </center>
                <right>
                    <lane id="-1" type="driving" level="true">
                        <link/>
                        <width sOffset="0" a="2.32" b="0" c="0" d="0"/>
                        <roadMark sOffset="0" type="solid" weight="standard" color="standard" width="0.13"/>
                        <speed sOffset="0" max="36.11"/>
                    </lane>
                 </right>
            </laneSection>
        </lanes>
        <objects/>
        <signals/>
    </road>
    <road name="" length="15.23824723" id="401" junction="-1">
        <link>
            <predecessor elementType="junction" elementId="14"/>
            <successor elementType="junction" elementId="1"/>
        </link>
        <type s="0" type="town"/>
        <planView>
            <geometry s="0.00000000" x="14.51682524" y="-0.66650222" hdg="-1.74253992" length="1.38851644">
                <line/>
            </geometry>
            <geometry s="1.38851644" x="14.27952702" y="-2.03459120" hdg="-1.74253992" length="0.71430918">
                <paramPoly3 aU="-0.00000000" bU="0.53555655" cU="0.53027167" dU="-0.35436799" aV="0.00000000" bV="-0.00000000" cV="-0.13086409" dV="0.06980663" pRange="normalized"/>
            </geometry>
            <geometry s="2.10282562" x="14.09777888" y="-2.72514988" hdg="-1.84036677" length="0.49509326">
                <paramPoly3 aU="-0.00000000" bU="0.37131048" cU="0.37126012" dU="-0.24756682" aV="0.00000000" bV="-0.00000000" cV="-0.01460302" dV="0.00587960" pRange="normalized"/>
            </geometry>
            <geometry s="2.59791888" x="13.95754237" y="-3.19995359" hdg="-1.87152433" length="0.47258410">
                <paramPoly3 aU="-0.00000000" bU="0.35442173" cU="0.35457749" dU="-0.23648443" aV="0.00000000" bV="-0.00000000" cV="-0.00556580" dV="-0.00113563" pRange="normalized"/>
            </geometry>
            <geometry s="3.07050298" x="13.81117544" y="-3.64927737" hdg="-1.91255611" length="0.49229007">
                <paramPoly3 aU="-0.00000000" bU="0.36918791" cU="0.36926592" dU="-0.24636680" aV="0.00000000" bV="-0.00000000" cV="-0.01757922" dV="0.00489232" pRange="normalized"/>
            </geometry>
            <geometry s="3.56279305" x="13.63430146" y="-4.10865325" hdg="-1.96806172" length="0.65603279">
                <paramPoly3 aU="-0.00000000" bU="0.49200827" cU="0.49181977" dU="-0.32798022" aV="0.00000000" bV="0.00000000" cV="-0.02668582" dV="0.01205361" pRange="normalized"/>
            </geometry>
            <geometry s="4.21882584" x="13.36706247" y="-4.70776408" hdg="-2.00304956" length="0.56734282">
                <paramPoly3 aU="-0.00000000" bU="0.42548347" cU="0.42572673" dU="-0.28395990" aV="0.00000000" bV="0.00000000" cV="-0.00591589" dV="-0.00240288" pRange="normalized"/>
            </geometry>
            <geometry s="4.78616866" x="13.12187754" y="-5.21935615" hdg="-2.04781460" length="0.60758441">
                <paramPoly3 aU="-0.00000000" bU="0.45565409" cU="0.45559159" dU="-0.30394686" aV="0.00000000" bV="0.00000000" cV="-0.02675455" dV="0.00968049" pRange="normalized"/>
            </geometry>
            <geometry s="5.39375308" x="12.82787896" y="-5.75102166" hdg="-2.10153826" length="0.64532580">
                <paramPoly3 aU="-0.00000000" bU="0.48396920" cU="0.48388820" dU="-0.32275279" aV="0.00000000" bV="0.00000000" cV="-0.02509001" dV="0.00952881" pRange="normalized"/>
            </geometry>
            <geometry s="6.03907888" x="12.48792373" y="-6.29950370" hdg="-2.14617076" length="0.58207513">
                <paramPoly3 aU="-0.00000000" bU="0.43653893" cU="0.43641695" dU="-0.29105452" aV="0.00000000" bV="-0.00000000" cV="-0.02275012" dV="0.00951275" pRange="normalized"/>
            </geometry>
            <geometry s="6.62115401" x="12.16017670" y="-6.78050921" hdg="-2.18503618" length="0.47370578">
                <paramPoly3 aU="-0.00000000" bU="0.35526478" cU="0.35526587" dU="-0.23693721" aV="0.00000000" bV="-0.00000000" cV="-0.01404883" dV="0.00466606" pRange="normalized"/>
            </geometry>
            <geometry s="7.09485979" x="11.87955934" y="-7.16212771" hdg="-2.22473386" length="0.53751999">
                <paramPoly3 aU="-0.00000000" bU="0.40312921" cU="0.40308776" dU="-0.26879391" aV="0.00000000" bV="-0.00000000" cV="-0.01536820" dV="0.00594796" pRange="normalized"/>
            </geometry>
            <geometry s="7.63237977" x="11.54515933" y="-7.58294706" hdg="-2.25672044" length="0.48248709">
                <paramPoly3 aU="-0.00000000" bU="0.36184299" cU="0.36206118" dU="-0.24150945" aV="0.00000000" bV="-0.00000000" cV="-0.00617964" dV="-0.00159233" pRange="normalized"/>
            </geometry>
            <geometry s="8.11486687" x="11.23360190" y="-7.95131784" hdg="-2.30409645" length="0.44844010">
                <paramPoly3 aU="-0.00000000" bU="0.33631578" cU="0.33566126" dU="-0.22380971" aV="0.00000000" bV="0.00000000" cV="-0.03677920" dV="0.02169706" pRange="normalized"/>
            </geometry>
            <geometry s="8.56330696" x="10.92242665" y="-8.27419768" hdg="-2.32927553" length="0.36863748">
                <paramPoly3 aU="-0.00000000" bU="0.27647693" cU="0.27643280" dU="-0.18429335" aV="0.00000000" bV="-0.00000000" cV="0.00855547" dV="-0.00476136" pRange="normalized"/>
            </geometry>
            <geometry s="8.93194444" x="10.67163964" y="-8.54437966" hdg="-2.31905073" length="0.19274730">
                <paramPoly3 aU="-0.00000000" bU="0.14456042" cU="0.14456119" dU="-0.09637439" aV="0.00000000" bV="0.00000000" cV="0.00040030" dV="-0.00042526" pRange="normalized"/>
            </geometry>
            <geometry s="9.12469175" x="10.54048376" y="-8.68562281" hdg="-2.32233770" length="0.25106061">
                <paramPoly3 aU="-0.00000000" bU="0.18828644" cU="0.18840612" dU="-0.12564471" aV="0.00000000" bV="-0.00000000" cV="0.00494797" dV="-0.00555657" pRange="normalized"/>
            </geometry>
            <geometry s="9.37575236" x="10.36863221" y="-8.86863221" hdg="-2.35832133" length="0.26107729">
                <paramPoly3 aU="-0.00000000" bU="0.19579511" cU="0.19562112" dU="-0.13049202" aV="0.00000000" bV="-0.00000000" cV="-0.01570457" dV="0.00728112" pRange="normalized"/>
            </geometry>
            <geometry s="9.63682965" x="10.17779535" y="-9.04677173" hdg="-2.40719697" length="0.22233285">
                <paramPoly3 aU="-0.00000000" bU="0.16674674" cU="0.16666340" dU="-0.11112341" aV="0.00000000" bV="0.00000000" cV="-0.00919793" dV="0.00486357" pRange="normalized"/>
            </geometry>
            <geometry s="9.85916250" x="10.00990153" y="-9.19251756" hdg="-2.43001893" length="0.42619231">
                <paramPoly3 aU="-0.00000000" bU="0.31963126" cU="0.31980122" dU="-0.21325810" aV="0.00000000" bV="0.00000000" cV="0.00826279" dV="-0.00900213" pRange="normalized"/>
            </geometry>
            <geometry s="10.28535481" x="9.68666190" y="-9.47026076" hdg="-2.46281517" length="0.45419804">
                <paramPoly3 aU="-0.00000000" bU="0.34063623" cU="0.34022382" dU="-0.22687130" aV="0.00000000" bV="-0.00000000" cV="-0.02906497" dV="0.01582951" pRange="normalized"/>
            </geometry>
            <geometry s="10.73955285" x="9.32499413" y="-9.74499224" hdg="-2.49406009" length="0.64889780">
                <paramPoly3 aU="-0.00000000" bU="0.48665830" cU="0.48685516" dU="-0.32463643" aV="0.00000000" bV="0.00000000" cV="0.01105389" dV="-0.01200743" pRange="normalized"/>
            </geometry>
            <geometry s="11.38845065" x="8.80689108" y="-10.13564751" hdg="-2.52265591" length="0.48995193">
                <paramPoly3 aU="-0.00000000" bU="0.36743503" cU="0.36700651" dU="-0.24484438" aV="0.00000000" bV="-0.00000000" cV="-0.03325464" dV="0.01565514" pRange="normalized"/>
            </geometry>
            <geometry s="11.87840258" x="8.39790557" y="-10.40536212" hdg="-2.57587097" length="0.47693321">
                <paramPoly3 aU="-0.00000000" bU="0.35768255" cU="0.35778540" dU="-0.23863305" aV="0.00000000" bV="0.00000000" cV="-0.01007860" dV="0.00161154" pRange="normalized"/>
            </geometry>
            <geometry s="12.35533579" x="7.99082204" y="-10.65380973" hdg="-2.61872261" length="0.45470811">
                <paramPoly3 aU="-0.00000000" bU="0.34102115" cU="0.34068029" dU="-0.22716410" aV="0.00000000" bV="0.00000000" cV="-0.02642576" dV="0.01445815" pRange="normalized"/>
            </geometry>
            <geometry s="12.81004391" x="7.59103939" y="-10.87042287" hdg="-2.64651648" length="0.46847732">
                <paramPoly3 aU="-0.00000000" bU="0.35133968" cU="0.35157607" dU="-0.23446332" aV="0.00000000" bV="-0.00000000" cV="0.01091876" dV="-0.01158750" pRange="normalized"/>
            </geometry>
            <geometry s="13.27852122" x="7.17851514" y="-11.09239556" hdg="-2.68331245" length="0.46467044">
                <paramPoly3 aU="-0.00000000" bU="0.34848437" cU="0.34783840" dU="-0.23197231" aV="0.00000000" bV="0.00000000" cV="-0.03675991" dV="0.02019491" pRange="normalized"/>
            </geometry>
            <geometry s="13.74319166" x="6.75475039" y="-11.28297145" hdg="-2.72043907" length="0.45073378">
                <paramPoly3 aU="-0.00000000" bU="0.33804039" cU="0.33817087" dU="-0.22549126" aV="0.00000000" bV="0.00000000" cV="0.00740029" dV="-0.00808251" pRange="normalized"/>
            </geometry>
            <geometry s="14.19392545" x="6.34313632" y="-11.46660927" hdg="-2.74838894" length="0.47039539">
                <paramPoly3 aU="-0.00000000" bU="0.35278170" cU="0.35260175" dU="-0.23515876" aV="0.00000000" bV="0.00000000" cV="-0.02187165" dV="0.00995768" pRange="normalized"/>
            </geometry>
            <geometry s="14.66432084" x="5.90423139" y="-11.63577091" hdg="-2.78771593" length="0.41925685">
                <paramPoly3 aU="-0.00000000" bU="0.31443040" cU="0.31450646" dU="-0.20974801" aV="0.00000000" bV="-0.00000000" cV="-0.00769532" dV="0.00111233" pRange="normalized"/>
            </geometry>
            <geometry s="15.08357768" x="5.50873577" y="-11.77486022" hdg="-2.82606026" length="0.15466955">
                <line/>
            </geometry>
        </planView>
        <elevationProfile>
            <elevation s="0" a="0.00" b="0" c="0" d="0"/>
        </elevationProfile>
        <lateralProfile/>
        <lanes>
            <laneSection s="0">
                <center>